*Heading
** Job name: Job-2D_5 Model name: Job-2D_5
** Generated by: Abaqus/CAE 6.14-1
*Preprint, echo=NO, model=NO, history=NO, contact=NO
**
** PARTS
**
*Part, name=PART-TUBE-1
*Node
      1,           0.,          -2.
      2,           0.,          -1.
      3,          -1.,           0.
      4,          -2.,           0.
      5,           0.,           1.
      6,           0.,           2.
      7,           2.,           0.
      8,           1.,           0.
      9,           0.,  -1.79999995
     10,           0.,  -1.60000002
     11,           0.,  -1.39999998
     12,           0.,  -1.20000005
     13, -0.309017003,  -0.95105654
     14, -0.587785244, -0.809017003
     15, -0.809017003, -0.587785244
     16,  -0.95105654, -0.309017003
     17,  -1.20000005,           0.
     18,  -1.39999998,           0.
     19,  -1.60000002,           0.
     20,  -1.79999995,           0.
** ... 100 like lines cut
*Element, type=CPS4R
  1,   1,   9,  57,  24
  2,   9,  10,  58,  57
  3,  10,  11,  59,  58
  4,  11,  12,  60,  59
  5,  12,   2,  13,  60
  6,  24,  57,  61,  23
  7,  57,  58,  62,  61
  8,  58,  59,  63,  62
  9,  59,  60,  64,  63
 10,  60,  13,  14,  64
 11,  23,  61,  65,  22
 12,  61,  62,  66,  65
 13,  62,  63,  67,  66
 14,  63,  64,  68,  67
 15,  64,  14,  15,  68
 16,  22,  65,  69,  21
 17,  65,  66,  70,  69
 18,  66,  67,  71,  70
 19,  67,  68,  72,  71
 20,  68,  15,  16,  72
** ... 80 like lines cut
*Nset, nset=_PICKEDSET6, internal, generate
   1,  120,    1
*Elset, elset=_PICKEDSET6, internal, generate
   1,  100,    1
** Section: Section-1-_PICKEDSET6
*Solid Section, elset=_PICKEDSET6, material=MATERIAL-1
1.,
*End Part
**  
**
** ASSEMBLY
**
*Assembly, name=Assembly
**  
*Instance, name=PART-TUBE-1, part=PART-TUBE-1
*End Instance
**  
*Nset, nset=_PICKEDSET5, internal, instance=PART-TUBE-1
  1,  4,  6,  7, 21, 22, 23, 24, 29, 30, 31, 32, 37, 38, 39, 40
 53, 54, 55, 56
*Elset, elset=_PICKEDSET5, internal, instance=PART-TUBE-1
  1,  6, 11, 16, 21, 30, 35, 40, 45, 50, 55, 60, 65, 70, 75, 76
 81, 86, 91, 96
*Elset, elset=__PICKEDSURF4_S2, internal, instance=PART-TUBE-1
   5,  10,  15,  20,  25,  80,  85,  90,  95, 100
*Elset, elset=__PICKEDSURF4_S4, internal, instance=PART-TUBE-1, generate
 26,  71,   5
*Elset, elset=__PICKEDSURF4_S2_1, internal, instance=PART-TUBE-1
   5,  10,  15,  20,  25,  80,  85,  90,  95, 100
*Elset, elset=__PICKEDSURF4_S4_1, internal, instance=PART-TUBE-1, generate
 26,  71,   5
*Surface, type=ELEMENT, name=_PICKEDSURF4, internal
__PICKEDSURF4_S2_1, S2
__PICKEDSURF4_S4_1, S4
*End Assembly
** 
** MATERIALS
** 
*Material, name=MATERIAL-1
*Elastic
1., 0.3
** ----------------------------------------------------------------
** 
** STEP: Step-1
** 
*Step, name=Step-1, nlgeom=NO
*Static
1., 1., 1e-05, 1.
** 
** BOUNDARY CONDITIONS
** 
** Name: Disp-BC-1 Type: Displacement/Rotation
*Boundary
_PICKEDSET5, 1, 1
** Name: Disp-BC-2 Type: Displacement/Rotation
*Boundary
_PICKEDSET5, 2, 2
** Name: Disp-BC-3 Type: Displacement/Rotation
*Boundary
_PICKEDSET5, 6, 6
** 
** LOADS
** 
** Name: SURFFORCE-1   Type: Pressure
*Dsload
_PICKEDSURF4, P, 1.
** 
** OUTPUT REQUESTS
** 
*Restart, write, frequency=0
** 
** FIELD OUTPUT: F-Output-1
** 
*Output, field, variable=PRESELECT
** 
** HISTORY OUTPUT: H-Output-1
** 
*Output, history, variable=PRESELECT
*End Step
