*Heading
** Job name: Merge-3 Model name: Merge-1
** Generated by: Abaqus/CAE 6.14-1
*Preprint, echo=NO, model=NO, history=NO, contact=NO
**
** PARTS
**
*Part, name=PART-1
*Node
      1,         200.,         -10.,           0.
      2,         200.,          10.,           0.
      3,         150.,          10.,           0.
      4,         150.,         -10.,           0.
      5,         100.,          10.,           0.
      6,         100.,         -10.,           0.
      7,          50.,          10.,           0.
      8,          50.,         -10.,           0.
      9,           0.,          10.,           0.
     10,           0.,         -10.,           0.
     11,         -50.,          10.,           0.
     12,         -50.,         -10.,           0.
     13,        -100.,          10.,           0.
     14,        -100.,         -10.,           0.
     15,        -150.,          10.,           0.
     16,        -150.,         -10.,           0.
     17,        -200.,          10.,           0.
     18,        -200.,         -10.,           0.
     19,        -250.,          10.,           0.
     20,        -250.,         -10.,           0.
** ... 4065 like lines cut
*Element, type=S4R
  1,   1,  23, 236,  46
  2,  23,  24, 237, 236
  3,  24,  25, 238, 237
  4,  25,   2,  26, 238
  5,  46, 236, 239,  45
  6, 236, 237, 240, 239
  7, 237, 238, 241, 240
  8, 238,  26,  27, 241
  9,  45, 239, 242,  44
 10, 239, 240, 243, 242
 11, 240, 241, 244, 243
 12, 241,  27,  28, 244
 13,  44, 242, 245,  43
 14, 242, 243, 246, 245
 15, 243, 244, 247, 246
 16, 244,  28,  29, 247
 17,  43, 245, 248,  42
 18, 245, 246, 249, 248
 19, 246, 247, 250, 249
 20, 247,  29,  30, 250
** ... 380 like lines cut
*Element, type=B31
2161, 3426, 3434
2162, 3434, 3435
2163, 3435, 3436
2164, 3436, 3437
2165, 3437, 3438
2166, 3438, 3439
2167, 3439, 3440
2168, 3440, 3441
2169, 3441, 3442
2170, 3442, 3443
2171, 3443, 3444
2172, 3444, 3445
2173, 3445, 2230
2174,   18, 3446
2175, 3446, 3447
2176, 3447, 3448
2177, 3448, 3449
2178, 3449, 3450
2179, 3450, 3451
2180, 3451, 3452
** ... 684 like lines cut
*Element, type=T3D2
2865,   12,  513
2866,   14,  513
2867,   16,  513
2868,   18,  513
2869,   20,  513
2870,   11, 1370
2871,   13, 1370
2872,   15, 1370
2873,   17, 1370
2874,   19, 1370
2875,    8,  513
2876,    6,  513
2877,    4,  513
2878,    1,  513
2879,   21,  513
2880,    7, 1370
2881,    5, 1370
2882,    3, 1370
2883,    2, 1370
2884,   22, 1370
*Element, type=C3D8R
 401,  606,  933, 1210,  777,  506,  518,  773,  523
 402,  933,  646,  855, 1210,  518,  507,  519,  773
 403,  777, 1210, 1211,  778,  523,  773,  774,  522
 404, 1210,  855,  856, 1211,  773,  519,  520,  774
 405,  778, 1211,  972,  530,  522,  774,  521,  509
 406, 1211,  856,  645,  972,  774,  520,  508,  521
 407,  605,  934, 1212,  779,  606,  933, 1210,  777
 408,  934,  647,  857, 1212,  933,  646,  855, 1210
 409,  779, 1212, 1213,  780,  777, 1210, 1211,  778
 410, 1212,  857,  858, 1213, 1210,  855,  856, 1211
 411,  780, 1213,  973,  531,  778, 1211,  972,  530
 412, 1213,  858,  644,  973, 1211,  856,  645,  972
 413,  604,  935, 1214,  781,  605,  934, 1212,  779
 414,  935,  648,  859, 1214,  934,  647,  857, 1212
 415,  781, 1214, 1215,  782,  779, 1212, 1213,  780
 416, 1214,  859,  860, 1215, 1212,  857,  858, 1213
 417,  782, 1215,  974,  532,  780, 1213,  973,  531
 418, 1215,  860,  643,  974, 1213,  858,  644,  973
 419,  603,  936, 1216,  783,  604,  935, 1214,  781
 420,  936,  649,  861, 1216,  935,  648,  859, 1214
** ... 1740 like lines cut
*Elset, elset=PART-CABLE50-1__PICKEDSET2
 2865,
*Elset, elset=PART-CABLE50-2__PICKEDSET2
 2870,
*Elset, elset=PART-CABLE50-3__PICKEDSET2
 2875,
*Elset, elset=PART-CABLE50-4__PICKEDSET2
 2880,
*Elset, elset=PART-CABLE100-1__PICKEDSET2
 2866,
*Elset, elset=PART-CABLE100-2__PICKEDSET2
 2871,
*Elset, elset=PART-CABLE100-3__PICKEDSET2
 2876,
*Elset, elset=PART-CABLE100-4__PICKEDSET2
 2881,
*Elset, elset=PART-CABLE150-1__PICKEDSET2
 2867,
*Elset, elset=PART-CABLE150-2__PICKEDSET2
 2872,
*Elset, elset=PART-CABLE150-3__PICKEDSET2
 2877,
*Elset, elset=PART-CABLE150-4__PICKEDSET2
 2882,
*Elset, elset=PART-CABLE200-1__PICKEDSET2
 2868,
*Elset, elset=PART-CABLE200-2__PICKEDSET2
 2873,
*Elset, elset=PART-CABLE200-3__PICKEDSET2
 2878,
*Elset, elset=PART-CABLE200-4__PICKEDSET2
 2883,
*Elset, elset=PART-CABLE250-1__PICKEDSET2
 2869,
*Elset, elset=PART-CABLE250-2__PICKEDSET2
 2874,
*Elset, elset=PART-CABLE250-3__PICKEDSET2
 2879,
*Elset, elset=PART-CABLE250-4__PICKEDSET2
 2884,
*Elset, elset=PART-FLOOR-1__PICKEDSET20, generate
   1,  400,    1
*Elset, elset=PART-PIER-1__PICKEDSET4, generate
  881,  1360,     1
*Elset, elset=PART-PIER-2__PICKEDSET4, generate
 401,  880,    1
*Elset, elset=PART-RIVERBANK-1__PICKEDSET2, generate
 1361,  1760,     1
*Elset, elset=PART-RIVERBANK-2__PICKEDSET2, generate
 1761,  2160,     1
*Elset, elset=PART-SUPPORTBEAM-1__PICKEDSET2, generate
 2161,  2512,     1
*Elset, elset=PART-SUPPORTBEAM-2__PICKEDSET2, generate
 2513,  2864,     1
** Section: Section-1-PART-FLOOR-1__PICKEDSET20
*Shell Section, elset=PART-FLOOR-1__PICKEDSET20, material=CONCRETE
1., 5
** Section: Section-2-PART-PIER-2__PICKEDSET4
*Solid Section, elset=PART-PIER-2__PICKEDSET4, material=CONCRETE
,
** Section: Section-3-PART-PIER-1__PICKEDSET4
*Solid Section, elset=PART-PIER-1__PICKEDSET4, material=CONCRETE
,
** Section: Section-4-PART-RIVERBANK-1__PICKEDSET2
*Solid Section, elset=PART-RIVERBANK-1__PICKEDSET2, material=GRANITE
,
** Section: Section-5-PART-RIVERBANK-2__PICKEDSET2
*Solid Section, elset=PART-RIVERBANK-2__PICKEDSET2, material=GRANITE
,
** Section: Section-6-PART-SUPPORTBEAM-1__PICKEDSET2  Profile: Profile-1
*Beam Section, elset=PART-SUPPORTBEAM-1__PICKEDSET2, material=ALUMINUM, temperature=GRADIENTS, section=BOX
2., 2., 0.1, 0.1, 0.1, 0.1
0.,1.,-6.12323e-17
** Section: Section-7-PART-SUPPORTBEAM-2__PICKEDSET2  Profile: Profile-2
*Beam Section, elset=PART-SUPPORTBEAM-2__PICKEDSET2, material=ALUMINUM, temperature=GRADIENTS, section=BOX
2., 2., 0.1, 0.1, 0.1, 0.1
0.,1.,-6.12323e-17
** Section: Section-8-PART-CABLE50-1__PICKEDSET2
*Solid Section, elset=PART-CABLE50-1__PICKEDSET2, material=STEEL
0.25,
** Section: Section-9-PART-CABLE100-1__PICKEDSET2
*Solid Section, elset=PART-CABLE100-1__PICKEDSET2, material=STEEL
0.25,
** Section: Section-10-PART-CABLE150-1__PICKEDSET2
*Solid Section, elset=PART-CABLE150-1__PICKEDSET2, material=STEEL
0.25,
** Section: Section-11-PART-CABLE200-1__PICKEDSET2
*Solid Section, elset=PART-CABLE200-1__PICKEDSET2, material=STEEL
0.25,
** Section: Section-12-PART-CABLE250-1__PICKEDSET2
*Solid Section, elset=PART-CABLE250-1__PICKEDSET2, material=STEEL
0.25,
** Section: Section-13-PART-CABLE50-2__PICKEDSET2
*Solid Section, elset=PART-CABLE50-2__PICKEDSET2, material=STEEL
0.25,
** Section: Section-14-PART-CABLE100-2__PICKEDSET2
*Solid Section, elset=PART-CABLE100-2__PICKEDSET2, material=STEEL
0.25,
** Section: Section-15-PART-CABLE150-2__PICKEDSET2
*Solid Section, elset=PART-CABLE150-2__PICKEDSET2, material=STEEL
0.25,
** Section: Section-16-PART-CABLE200-2__PICKEDSET2
*Solid Section, elset=PART-CABLE200-2__PICKEDSET2, material=STEEL
0.25,
** Section: Section-17-PART-CABLE250-2__PICKEDSET2
*Solid Section, elset=PART-CABLE250-2__PICKEDSET2, material=STEEL
0.25,
** Section: Section-18-PART-CABLE50-3__PICKEDSET2
*Solid Section, elset=PART-CABLE50-3__PICKEDSET2, material=STEEL
0.25,
** Section: Section-19-PART-CABLE100-3__PICKEDSET2
*Solid Section, elset=PART-CABLE100-3__PICKEDSET2, material=STEEL
0.25,
** Section: Section-20-PART-CABLE150-3__PICKEDSET2
*Solid Section, elset=PART-CABLE150-3__PICKEDSET2, material=STEEL
0.25,
** Section: Section-21-PART-CABLE200-3__PICKEDSET2
*Solid Section, elset=PART-CABLE200-3__PICKEDSET2, material=STEEL
0.25,
** Section: Section-22-PART-CABLE250-3__PICKEDSET2
*Solid Section, elset=PART-CABLE250-3__PICKEDSET2, material=STEEL
0.25,
** Section: Section-23-PART-CABLE50-4__PICKEDSET2
*Solid Section, elset=PART-CABLE50-4__PICKEDSET2, material=STEEL
0.25,
** Section: Section-24-PART-CABLE100-4__PICKEDSET2
*Solid Section, elset=PART-CABLE100-4__PICKEDSET2, material=STEEL
0.25,
** Section: Section-25-PART-CABLE150-4__PICKEDSET2
*Solid Section, elset=PART-CABLE150-4__PICKEDSET2, material=STEEL
0.25,
** Section: Section-26-PART-CABLE200-4__PICKEDSET2
*Solid Section, elset=PART-CABLE200-4__PICKEDSET2, material=STEEL
0.25,
** Section: Section-27-PART-CABLE250-4__PICKEDSET2
*Solid Section, elset=PART-CABLE250-4__PICKEDSET2, material=STEEL
0.25,
*End Part
**  
**
** ASSEMBLY
**
*Assembly, name=Assembly
**  
*Instance, name=PART-1-1, part=PART-1
*End Instance
**  
*Nset, nset=M_SET-6, instance=PART-1-1
 2,
*Nset, nset=M_SET-8, instance=PART-1-1
 3,
*Nset, nset=M_SET-10, instance=PART-1-1
 5,
*Nset, nset=M_SET-12, instance=PART-1-1
 22,
*Nset, nset=M_SET-13, instance=PART-1-1
 7,
*Nset, nset=M_SET-14, instance=PART-1-1
 21,
*Nset, nset=M_SET-16, instance=PART-1-1
 1,
*Nset, nset=M_SET-18, instance=PART-1-1
 4,
*Nset, nset=M_SET-20, instance=PART-1-1
 6,
*Nset, nset=M_SET-22, instance=PART-1-1
 8,
*Nset, nset=M_SET-24, instance=PART-1-1
 19,
*Nset, nset=M_SET-26, instance=PART-1-1
 17,
*Nset, nset=M_SET-28, instance=PART-1-1
 15,
*Nset, nset=M_SET-30, instance=PART-1-1
 13,
*Nset, nset=M_SET-32, instance=PART-1-1
 11,
*Nset, nset=M_SET-34, instance=PART-1-1
 20,
*Nset, nset=M_SET-36, instance=PART-1-1
 18,
*Nset, nset=M_SET-38, instance=PART-1-1
 16,
*Nset, nset=M_SET-40, instance=PART-1-1
 14,
*Nset, nset=M_SET-42, instance=PART-1-1
 12,
** ... 46 like lines cut
*Elset, elset=M_SET-90, instance=PART-1-1, generate
 1781,  1784,     1
*Elset, elset=M_SET-92, instance=PART-1-1, generate
 1597,  1600,     1
*Nset, nset=M_SET-94, instance=PART-1-1
 513,
*Nset, nset=M_SET-96, instance=PART-1-1
 513,
*Nset, nset=M_SET-98, instance=PART-1-1
 1370,
*Nset, nset=M_SET-100, instance=PART-1-1
 1370,
*Nset, nset=PART-FLOOR-1__PICKEDSET20, instance=PART-1-1, generate
   1,  505,    1
*Nset, nset=PART-PIER-1__PICKEDSET4, instance=PART-1-1, generate
 1366,  2225,     1
*Nset, nset=PART-PIER-2__PICKEDSET4, instance=PART-1-1, generate
  506,  1365,     1
*Nset, nset=PART-RIVERBANK-1__PICKEDSET2, instance=PART-1-1, generate
 2226,  2825,     1
*Nset, nset=PART-RIVERBANK-2__PICKEDSET2, instance=PART-1-1, generate
 2826,  3425,     1
*Nset, nset=PART-SUPPORTBEAM-1__PICKEDSET2, instance=PART-1-1, generate
 3426,  3755,     1
*Nset, nset=PART-SUPPORTBEAM-2__PICKEDSET2, instance=PART-1-1, generate
 3756,  4085,     1
*Nset, nset=SET-102, instance=PART-1-1
  506,  507,  508,  509,  514,  515,  518,  519,  520,  521,  522,  523,  685,  686,  687,  688
  689,  773,  774, 1011, 1012, 1366, 1367, 1368, 1369, 1374, 1375, 1378, 1379, 1380, 1381, 1382
 1383, 1545, 1546, 1547, 1548, 1549, 1633, 1634, 1871, 1872, 2232, 2233, 2234, 2235, 2304, 2305
 2306, 2313, 2314, 2315, 2319, 2320, 2321, 2322, 2323, 2324, 2325, 2326, 2327, 2328, 2329, 2330
 2331, 2332, 2333, 2334, 2335, 2336, 2583, 2584, 2585, 2586, 2587, 2588, 2589, 2590, 2591, 2592
 2593, 2594, 2595, 2596, 2597, 2598, 2599, 2600, 2601, 2602, 2603, 2604, 2605, 2606, 2607, 2608
 2609, 2832, 2833, 2834, 2835, 2904, 2905, 2906, 2913, 2914, 2915, 2919, 2920, 2921, 2922, 2923
 2924, 2925, 2926, 2927, 2928, 2929, 2930, 2931, 2932, 2933, 2934, 2935, 2936, 3183, 3184, 3185
 3186, 3187, 3188, 3189, 3190, 3191, 3192, 3193, 3194, 3195, 3196, 3197, 3198, 3199, 3200, 3201
 3202, 3203, 3204, 3205, 3206, 3207, 3208, 3209
*Elset, elset=SET-102, instance=PART-1-1
  401,  402,  403,  404,  405,  406,  641,  642,  643,  644,  645,  646,  881,  882,  883,  884
  885,  886, 1121, 1122, 1123, 1124, 1125, 1126, 1613, 1614, 1615, 1616, 1629, 1630, 1631, 1632
 1645, 1646, 1647, 1648, 1661, 1662, 1663, 1664, 1677, 1678, 1679, 1680, 1693, 1694, 1695, 1696
 1709, 1710, 1711, 1712, 1725, 1726, 1727, 1728, 1741, 1742, 1743, 1744, 1757, 1758, 1759, 1760
 2013, 2014, 2015, 2016, 2029, 2030, 2031, 2032, 2045, 2046, 2047, 2048, 2061, 2062, 2063, 2064
 2077, 2078, 2079, 2080, 2093, 2094, 2095, 2096, 2109, 2110, 2111, 2112, 2125, 2126, 2127, 2128
 2141, 2142, 2143, 2144, 2157, 2158, 2159, 2160
*Elset, elset=SET-CABLESGROUP1, instance=PART-1-1, generate
 2865,  2869,     1
*Elset, elset=SET-CABLESGROUP2, instance=PART-1-1, generate
 2870,  2874,     1
*Elset, elset=SET-CABLESGROUP3, instance=PART-1-1, generate
 2875,  2879,     1
*Nset, nset=S_SET-90, instance=PART-1-1
  21,  22, 224, 225, 226
*Elset, elset=S_SET-90, instance=PART-1-1, generate
 397,  400,    1
*Nset, nset=S_SET-92, instance=PART-1-1
  19,  20, 203, 204, 205
*Elset, elset=S_SET-92, instance=PART-1-1, generate
 357,  360,    1
*Nset, nset=M_SET-6_CNS_, internal, instance=PART-1-1
 2,
*Nset, nset=M_SET-8_CNS_, internal, instance=PART-1-1
 3,
*Nset, nset=M_SET-10_CNS_, internal, instance=PART-1-1
 5,
*Nset, nset=M_SET-12_CNS_, internal, instance=PART-1-1
 22,
*Nset, nset=M_SET-13_CNS_, internal, instance=PART-1-1
 7,
*Nset, nset=M_SET-14_CNS_, internal, instance=PART-1-1
 21,
*Nset, nset=M_SET-16_CNS_, internal, instance=PART-1-1
 1,
*Nset, nset=M_SET-18_CNS_, internal, instance=PART-1-1
 4,
*Nset, nset=M_SET-20_CNS_, internal, instance=PART-1-1
 6,
*Nset, nset=M_SET-22_CNS_, internal, instance=PART-1-1
 8,
*Nset, nset=M_SET-24_CNS_, internal, instance=PART-1-1
 19,
*Nset, nset=M_SET-26_CNS_, internal, instance=PART-1-1
 17,
*Nset, nset=M_SET-28_CNS_, internal, instance=PART-1-1
 15,
*Nset, nset=M_SET-30_CNS_, internal, instance=PART-1-1
 13,
*Nset, nset=M_SET-32_CNS_, internal, instance=PART-1-1
 11,
*Nset, nset=M_SET-34_CNS_, internal, instance=PART-1-1
 20,
*Nset, nset=M_SET-36_CNS_, internal, instance=PART-1-1
 18,
*Nset, nset=M_SET-38_CNS_, internal, instance=PART-1-1
 16,
*Nset, nset=M_SET-40_CNS_, internal, instance=PART-1-1
 14,
*Nset, nset=M_SET-42_CNS_, internal, instance=PART-1-1
** ... 53 like lines cut
*Nset, nset=S_SET-90_CNS_, internal, instance=PART-1-1
  21,  22, 224, 225, 226
*Nset, nset=S_SET-92_CNS_, internal, instance=PART-1-1
  19,  20, 203, 204, 205
*Surface, type=NODE, name=M_SET-6_CNS__CNS_, internal
M_SET-6_CNS_, 1.
*Surface, type=NODE, name=S_SET-6_CNS__CNS_, internal
S_SET-6_CNS_, 1.
*Surface, type=NODE, name=M_SET-8_CNS__CNS_, internal
M_SET-8_CNS_, 1.
*Surface, type=NODE, name=S_SET-8_CNS__CNS_, internal
S_SET-8_CNS_, 1.
*Surface, type=NODE, name=M_SET-10_CNS__CNS_, internal
M_SET-10_CNS_, 1.
*Surface, type=NODE, name=S_SET-10_CNS__CNS_, internal
S_SET-10_CNS_, 1.
*Surface, type=NODE, name=M_SET-12_CNS__CNS_, internal
M_SET-12_CNS_, 1.
*Surface, type=NODE, name=S_SET-12_CNS__CNS_, internal
S_SET-12_CNS_, 1.
*Surface, type=NODE, name=M_SET-13_CNS__CNS_, internal
M_SET-13_CNS_, 1.
*Surface, type=NODE, name=S_SET-13_CNS__CNS_, internal
S_SET-13_CNS_, 1.
*Surface, type=NODE, name=M_SET-14_CNS__CNS_, internal
M_SET-14_CNS_, 1.
*Surface, type=NODE, name=S_SET-14_CNS__CNS_, internal
S_SET-14_CNS_, 1.
*Surface, type=NODE, name=M_SET-16_CNS__CNS_, internal
M_SET-16_CNS_, 1.
*Surface, type=NODE, name=S_SET-16_CNS__CNS_, internal
S_SET-16_CNS_, 1.
*Surface, type=NODE, name=M_SET-18_CNS__CNS_, internal
M_SET-18_CNS_, 1.
*Surface, type=NODE, name=S_SET-18_CNS__CNS_, internal
S_SET-18_CNS_, 1.
*Surface, type=NODE, name=M_SET-20_CNS__CNS_, internal
M_SET-20_CNS_, 1.
*Surface, type=NODE, name=S_SET-20_CNS__CNS_, internal
S_SET-20_CNS_, 1.
*Surface, type=NODE, name=M_SET-22_CNS__CNS_, internal
M_SET-22_CNS_, 1.
*Surface, type=NODE, name=S_SET-22_CNS__CNS_, internal
S_SET-22_CNS_, 1.
*Surface, type=NODE, name=M_SET-24_CNS__CNS_, internal
M_SET-24_CNS_, 1.
*Surface, type=NODE, name=S_SET-24_CNS__CNS_, internal
S_SET-24_CNS_, 1.
*Surface, type=NODE, name=M_SET-26_CNS__CNS_, internal
M_SET-26_CNS_, 1.
*Surface, type=NODE, name=S_SET-26_CNS__CNS_, internal
S_SET-26_CNS_, 1.
*Surface, type=NODE, name=M_SET-28_CNS__CNS_, internal
M_SET-28_CNS_, 1.
*Surface, type=NODE, name=S_SET-28_CNS__CNS_, internal
S_SET-28_CNS_, 1.
*Surface, type=NODE, name=M_SET-30_CNS__CNS_, internal
M_SET-30_CNS_, 1.
*Surface, type=NODE, name=S_SET-30_CNS__CNS_, internal
S_SET-30_CNS_, 1.
*Surface, type=NODE, name=M_SET-32_CNS__CNS_, internal
M_SET-32_CNS_, 1.
*Surface, type=NODE, name=S_SET-32_CNS__CNS_, internal
S_SET-32_CNS_, 1.
*Surface, type=NODE, name=M_SET-34_CNS__CNS_, internal
M_SET-34_CNS_, 1.
*Surface, type=NODE, name=S_SET-34_CNS__CNS_, internal
S_SET-34_CNS_, 1.
*Surface, type=NODE, name=M_SET-36_CNS__CNS_, internal
M_SET-36_CNS_, 1.
*Surface, type=NODE, name=S_SET-36_CNS__CNS_, internal
S_SET-36_CNS_, 1.
*Surface, type=NODE, name=M_SET-38_CNS__CNS_, internal
M_SET-38_CNS_, 1.
*Surface, type=NODE, name=S_SET-38_CNS__CNS_, internal
S_SET-38_CNS_, 1.
*Surface, type=NODE, name=M_SET-40_CNS__CNS_, internal
M_SET-40_CNS_, 1.
*Surface, type=NODE, name=S_SET-40_CNS__CNS_, internal
S_SET-40_CNS_, 1.
*Surface, type=NODE, name=M_SET-42_CNS__CNS_, internal
M_SET-42_CNS_, 1.
*Surface, type=NODE, name=S_SET-42_CNS__CNS_, internal
S_SET-42_CNS_, 1.
*Surface, type=NODE, name=M_SET-46_CNS__CNS_, internal
M_SET-46_CNS_, 1.
*Surface, type=NODE, name=S_SET-46_CNS__CNS_, internal
S_SET-46_CNS_, 1.
*Surface, type=NODE, name=M_SET-48_CNS__CNS_, internal
M_SET-48_CNS_, 1.
*Surface, type=NODE, name=S_SET-48_CNS__CNS_, internal
S_SET-48_CNS_, 1.
*Surface, type=NODE, name=M_SET-50_CNS__CNS_, internal
M_SET-50_CNS_, 1.
*Surface, type=NODE, name=S_SET-50_CNS__CNS_, internal
S_SET-50_CNS_, 1.
*Surface, type=NODE, name=M_SET-52_CNS__CNS_, internal
M_SET-52_CNS_, 1.
*Surface, type=NODE, name=S_SET-52_CNS__CNS_, internal
S_SET-52_CNS_, 1.
*Surface, type=NODE, name=M_SET-54_CNS__CNS_, internal
M_SET-54_CNS_, 1.
*Surface, type=NODE, name=S_SET-54_CNS__CNS_, internal
S_SET-54_CNS_, 1.
*Surface, type=NODE, name=M_SET-56_CNS__CNS_, internal
M_SET-56_CNS_, 1.
*Surface, type=NODE, name=S_SET-56_CNS__CNS_, internal
S_SET-56_CNS_, 1.
*Surface, type=NODE, name=M_SET-58_CNS__CNS_, internal
M_SET-58_CNS_, 1.
*Surface, type=NODE, name=S_SET-58_CNS__CNS_, internal
S_SET-58_CNS_, 1.
*Surface, type=NODE, name=M_SET-60_CNS__CNS_, internal
M_SET-60_CNS_, 1.
*Surface, type=NODE, name=S_SET-60_CNS__CNS_, internal
S_SET-60_CNS_, 1.
*Surface, type=NODE, name=M_SET-62_CNS__CNS_, internal
M_SET-62_CNS_, 1.
*Surface, type=NODE, name=S_SET-62_CNS__CNS_, internal
S_SET-62_CNS_, 1.
*Surface, type=NODE, name=M_SET-64_CNS__CNS_, internal
M_SET-64_CNS_, 1.
*Surface, type=NODE, name=S_SET-64_CNS__CNS_, internal
S_SET-64_CNS_, 1.
*Surface, type=NODE, name=M_SET-66_CNS__CNS_, internal
M_SET-66_CNS_, 1.
*Surface, type=NODE, name=S_SET-66_CNS__CNS_, internal
S_SET-66_CNS_, 1.
*Surface, type=NODE, name=M_SET-68_CNS__CNS_, internal
M_SET-68_CNS_, 1.
*Surface, type=NODE, name=S_SET-68_CNS__CNS_, internal
S_SET-68_CNS_, 1.
*Surface, type=NODE, name=M_SET-70_CNS__CNS_, internal
M_SET-70_CNS_, 1.
*Surface, type=NODE, name=S_SET-70_CNS__CNS_, internal
S_SET-70_CNS_, 1.
*Surface, type=NODE, name=M_SET-72_CNS__CNS_, internal
M_SET-72_CNS_, 1.
*Surface, type=NODE, name=S_SET-72_CNS__CNS_, internal
S_SET-72_CNS_, 1.
*Surface, type=NODE, name=M_SET-74_CNS__CNS_, internal
M_SET-74_CNS_, 1.
*Surface, type=NODE, name=S_SET-74_CNS__CNS_, internal
S_SET-74_CNS_, 1.
*Surface, type=NODE, name=M_SET-76_CNS__CNS_, internal
M_SET-76_CNS_, 1.
*Surface, type=NODE, name=S_SET-76_CNS__CNS_, internal
S_SET-76_CNS_, 1.
*Surface, type=NODE, name=M_SET-78_CNS__CNS_, internal
M_SET-78_CNS_, 1.
*Surface, type=NODE, name=S_SET-78_CNS__CNS_, internal
S_SET-78_CNS_, 1.
*Surface, type=NODE, name=M_SET-80_CNS__CNS_, internal
M_SET-80_CNS_, 1.
*Surface, type=NODE, name=S_SET-80_CNS__CNS_, internal
S_SET-80_CNS_, 1.
*Surface, type=NODE, name=M_SET-82_CNS__CNS_, internal
M_SET-82_CNS_, 1.
*Surface, type=NODE, name=S_SET-82_CNS__CNS_, internal
S_SET-82_CNS_, 1.
*Surface, type=NODE, name=M_SET-84_CNS__CNS_, internal
M_SET-84_CNS_, 1.
*Surface, type=NODE, name=S_SET-84_CNS__CNS_, internal
S_SET-84_CNS_, 1.
*Surface, type=NODE, name=M_SET-86_CNS__CNS_, internal
M_SET-86_CNS_, 1.
*Surface, type=NODE, name=S_SET-86_CNS__CNS_, internal
S_SET-86_CNS_, 1.
*Surface, type=NODE, name=M_SET-88_CNS__CNS_, internal
M_SET-88_CNS_, 1.
*Surface, type=NODE, name=S_SET-88_CNS__CNS_, internal
S_SET-88_CNS_, 1.
*Surface, type=NODE, name=M_SET-90_CNS__CNS_, internal
M_SET-90_CNS_, 1.
*Surface, type=NODE, name=S_SET-90_CNS__CNS_, internal
S_SET-90_CNS_, 1.
*Surface, type=NODE, name=M_SET-92_CNS__CNS_, internal
M_SET-92_CNS_, 1.
*Surface, type=NODE, name=S_SET-92_CNS__CNS_, internal
S_SET-92_CNS_, 1.
*Surface, type=NODE, name=M_SET-94_CNS__CNS_, internal
M_SET-94_CNS_, 1.
*Surface, type=NODE, name=S_SET-94_CNS__CNS_, internal
S_SET-94_CNS_, 1.
*Surface, type=NODE, name=M_SET-96_CNS__CNS_, internal
M_SET-96_CNS_, 1.
*Surface, type=NODE, name=S_SET-96_CNS__CNS_, internal
S_SET-96_CNS_, 1.
*Surface, type=NODE, name=M_SET-98_CNS__CNS_, internal
M_SET-98_CNS_, 1.
*Surface, type=NODE, name=S_SET-98_CNS__CNS_, internal
S_SET-98_CNS_, 1.
*Surface, type=NODE, name=M_SET-100_CNS__CNS_, internal
M_SET-100_CNS_, 1.
*Surface, type=NODE, name=S_SET-100_CNS__CNS_, internal
S_SET-100_CNS_, 1.
** Constraint: CONSTRAINT-2-1
*Tie, name=CONSTRAINT-2-1, adjust=yes, no rotation
S_SET-6_CNS__CNS_, M_SET-6_CNS__CNS_
** Constraint: CONSTRAINT-3-1
*Tie, name=CONSTRAINT-3-1, adjust=yes, no rotation
S_SET-8_CNS__CNS_, M_SET-8_CNS__CNS_
** Constraint: CONSTRAINT-4-1
*Tie, name=CONSTRAINT-4-1, adjust=yes, no rotation
S_SET-10_CNS__CNS_, M_SET-10_CNS__CNS_
** Constraint: CONSTRAINT-5-1
*Tie, name=CONSTRAINT-5-1, adjust=yes, no rotation
S_SET-12_CNS__CNS_, M_SET-12_CNS__CNS_
** Constraint: CONSTRAINT-6-1
*Tie, name=CONSTRAINT-6-1, adjust=yes, no rotation
S_SET-13_CNS__CNS_, M_SET-13_CNS__CNS_
** Constraint: CONSTRAINT-7-1
*Tie, name=CONSTRAINT-7-1, adjust=yes
S_SET-14_CNS__CNS_, M_SET-14_CNS__CNS_
** Constraint: CONSTRAINT-8-1
*Tie, name=CONSTRAINT-8-1, adjust=yes
S_SET-16_CNS__CNS_, M_SET-16_CNS__CNS_
** Constraint: CONSTRAINT-9-1
*Tie, name=CONSTRAINT-9-1, adjust=no
S_SET-18_CNS__CNS_, M_SET-18_CNS__CNS_
** Constraint: CONSTRAINT-10-1
*Tie, name=CONSTRAINT-10-1, adjust=yes, no rotation
S_SET-20_CNS__CNS_, M_SET-20_CNS__CNS_
** Constraint: CONSTRAINT-11-1
*Tie, name=CONSTRAINT-11-1, adjust=yes, no rotation
S_SET-22_CNS__CNS_, M_SET-22_CNS__CNS_
** Constraint: CONSTRAINT-12-1
*Tie, name=CONSTRAINT-12-1, adjust=yes, no rotation
S_SET-24_CNS__CNS_, M_SET-24_CNS__CNS_
** Constraint: CONSTRAINT-13-1
*Tie, name=CONSTRAINT-13-1, adjust=yes, no rotation
S_SET-26_CNS__CNS_, M_SET-26_CNS__CNS_
** Constraint: CONSTRAINT-14-1
*Tie, name=CONSTRAINT-14-1, adjust=yes, no rotation
S_SET-28_CNS__CNS_, M_SET-28_CNS__CNS_
** Constraint: CONSTRAINT-15-1
*Tie, name=CONSTRAINT-15-1, adjust=yes, no rotation
S_SET-30_CNS__CNS_, M_SET-30_CNS__CNS_
** Constraint: CONSTRAINT-16-1
*Tie, name=CONSTRAINT-16-1, adjust=yes, no rotation
S_SET-32_CNS__CNS_, M_SET-32_CNS__CNS_
** Constraint: CONSTRAINT-17-1
*Tie, name=CONSTRAINT-17-1, adjust=yes, no rotation
S_SET-34_CNS__CNS_, M_SET-34_CNS__CNS_
** Constraint: CONSTRAINT-18-1
*Tie, name=CONSTRAINT-18-1, adjust=yes, no rotation
S_SET-36_CNS__CNS_, M_SET-36_CNS__CNS_
** Constraint: CONSTRAINT-19-1
*Tie, name=CONSTRAINT-19-1, adjust=yes, no rotation
S_SET-38_CNS__CNS_, M_SET-38_CNS__CNS_
** Constraint: CONSTRAINT-20-1
*Tie, name=CONSTRAINT-20-1, adjust=yes, no rotation
S_SET-40_CNS__CNS_, M_SET-40_CNS__CNS_
** Constraint: CONSTRAINT-21-1
*Tie, name=CONSTRAINT-21-1, adjust=yes, no rotation
S_SET-42_CNS__CNS_, M_SET-42_CNS__CNS_
** Constraint: CONSTRAINT-22-1
*Tie, name=CONSTRAINT-22-1, adjust=yes, no rotation
S_SET-46_CNS__CNS_, M_SET-46_CNS__CNS_
** Constraint: CONSTRAINT-23-1
*Tie, name=CONSTRAINT-23-1, adjust=yes, no rotation
S_SET-48_CNS__CNS_, M_SET-48_CNS__CNS_
** Constraint: CONSTRAINT-24-1
*Tie, name=CONSTRAINT-24-1, adjust=yes, no rotation
S_SET-50_CNS__CNS_, M_SET-50_CNS__CNS_
** Constraint: CONSTRAINT-25-1
*Tie, name=CONSTRAINT-25-1, adjust=yes, no rotation
S_SET-52_CNS__CNS_, M_SET-52_CNS__CNS_
** Constraint: CONSTRAINT-26-1
*Tie, name=CONSTRAINT-26-1, adjust=yes, no rotation
S_SET-54_CNS__CNS_, M_SET-54_CNS__CNS_
** Constraint: CONSTRAINT-27-1
*Tie, name=CONSTRAINT-27-1, adjust=yes, no rotation
S_SET-56_CNS__CNS_, M_SET-56_CNS__CNS_
** Constraint: CONSTRAINT-28-1
*Tie, name=CONSTRAINT-28-1, adjust=yes, no rotation
S_SET-58_CNS__CNS_, M_SET-58_CNS__CNS_
** Constraint: CONSTRAINT-29-1
*Tie, name=CONSTRAINT-29-1, adjust=yes, no rotation
** ... 61 like lines cut
*End Assembly
** 
** MATERIALS
** 
**  For the SupportBeam
*Material, name=ALUMINUM
*Density
2710.,
*Elastic
 7e+10, 0.346
**  For the Pier and the Floor
*Material, name=CONCRETE
*Density
2320.,
*Elastic
 2.5e+10, 0.3
**  For the RiverBank
*Material, name=GRANITE
*Density
2770.,
*Elastic
 6e+10, 0.27
**  For the Cable
*Material, name=STEEL
*Density
7860.,
*Elastic
 1.17e+11, 0.266
** ----------------------------------------------------------------
** 
** STEP: Step-1
** 
*Step, name=Step-1, nlgeom=NO
*Static
1., 1., 1e-05, 1.
** 
** BOUNDARY CONDITIONS
** 
** Name: Disp-BC-1 Type: Displacement/Rotation
*Boundary
SET-102, 1, 1
** Name: Disp-BC-2 Type: Displacement/Rotation
*Boundary
SET-102, 2, 2
** Name: Disp-BC-3 Type: Displacement/Rotation
*Boundary
SET-102, 3, 3
** 
** LOADS
** 
** Name: GRAVITY-1   Type: Gravity
*Dload
, GRAV, 10., 0., 0., -1.
** 
** OUTPUT REQUESTS
** 
*Restart, write, frequency=0
** 
** FIELD OUTPUT: F-Output-1
** 
*Output, field, variable=PRESELECT
** 
** HISTORY OUTPUT: H-Output-1
** 
*Output, history, variable=PRESELECT
*End Step
