*Heading
** Job name: Merge-2 Model name: Merge-1
** Generated by: Abaqus/CAE 6.14-1
*Preprint, echo=NO, model=NO, history=NO, contact=NO
**
** PARTS
**
*Part, name=PART-1
*Node
      1,         200.,         -10.,           0.
      2,         200.,          10.,           0.
      3,         150.,          10.,           0.
      4,         150.,         -10.,           0.
      5,         100.,          10.,           0.
      6,         100.,         -10.,           0.
      7,          50.,          10.,           0.
      8,          50.,         -10.,           0.
      9,           0.,          10.,           0.
     10,           0.,         -10.,           0.
     11,         -50.,          10.,           0.
     12,         -50.,         -10.,           0.
     13,        -100.,          10.,           0.
     14,        -100.,         -10.,           0.
     15,        -150.,          10.,           0.
     16,        -150.,         -10.,           0.
     17,        -200.,          10.,           0.
     18,        -200.,         -10.,           0.
     19,        -250.,          10.,           0.
     20,        -250.,         -10.,           0.
** ... 4065 like lines cut
*Element, type=S4R
  1,   1,  23, 236,  46
  2,  23,  24, 237, 236
  3,  24,  25, 238, 237
  4,  25,   2,  26, 238
  5,  46, 236, 239,  45
  6, 236, 237, 240, 239
  7, 237, 238, 241, 240
  8, 238,  26,  27, 241
  9,  45, 239, 242,  44
 10, 239, 240, 243, 242
 11, 240, 241, 244, 243
 12, 241,  27,  28, 244
 13,  44, 242, 245,  43
 14, 242, 243, 246, 245
 15, 243, 244, 247, 246
 16, 244,  28,  29, 247
 17,  43, 245, 248,  42
 18, 245, 246, 249, 248
 19, 246, 247, 250, 249
 20, 247,  29,  30, 250
** ... 380 like lines cut
*Element, type=B31
2161, 3438, 3458
2162, 3458, 3459
2163, 3459, 3460
2164, 3460, 3461
2165, 3461, 3462
2166, 3462, 3463
2167, 3463, 3464
2168, 3464, 3465
2169, 3465, 3466
2170, 3466, 3467
2171, 3467, 3468
2172, 3468, 3469
2173, 3469, 2232
2174,   18, 3470
2175, 3470, 3471
2176, 3471, 3472
2177, 3472, 3473
2178, 3473, 3474
2179, 3474, 3475
2180, 3475, 3476
** ... 684 like lines cut
*Element, type=T3D2
2865,   12,  513
2866,   14,  513
2867,   16,  513
2868,   18,  513
2869,   20,  513
2870,   11, 1371
2871,   13, 1371
2872,   15, 1371
2873,   17, 1371
2874,   19, 1371
2875,    8,  513
2876,    6,  513
2877,    4,  513
2878,    1,  513
2879,   21,  513
2880,    7, 1371
2881,    5, 1371
2882,    3, 1371
2883,    2, 1371
2884,   22, 1371
*Element, type=C3D8R
 401,  607,  934, 1211,  778,  506,  518,  774,  523
 402,  934,  647,  856, 1211,  518,  507,  519,  774
 403,  778, 1211, 1212,  779,  523,  774,  775,  522
 404, 1211,  856,  857, 1212,  774,  519,  520,  775
 405,  779, 1212,  973,  530,  522,  775,  521,  509
 406, 1212,  857,  646,  973,  775,  520,  508,  521
 407,  606,  935, 1213,  780,  607,  934, 1211,  778
 408,  935,  648,  858, 1213,  934,  647,  856, 1211
 409,  780, 1213, 1214,  781,  778, 1211, 1212,  779
 410, 1213,  858,  859, 1214, 1211,  856,  857, 1212
 411,  781, 1214,  974,  531,  779, 1212,  973,  530
 412, 1214,  859,  645,  974, 1212,  857,  646,  973
 413,  605,  936, 1215,  782,  606,  935, 1213,  780
 414,  936,  649,  860, 1215,  935,  648,  858, 1213
 415,  782, 1215, 1216,  783,  780, 1213, 1214,  781
 416, 1215,  860,  861, 1216, 1213,  858,  859, 1214
 417,  783, 1216,  975,  532,  781, 1214,  974,  531
 418, 1216,  861,  644,  975, 1214,  859,  645,  974
 419,  604,  937, 1217,  784,  605,  936, 1215,  782
 420,  937,  650,  862, 1217,  936,  649,  860, 1215
** ... 1740 like lines cut
*Elset, elset=PART-CABLE50-1__PICKEDSET2
 2865,
*Elset, elset=PART-CABLE50-2__PICKEDSET2
 2870,
*Elset, elset=PART-CABLE50-3__PICKEDSET2
 2875,
*Elset, elset=PART-CABLE50-4__PICKEDSET2
 2880,
*Elset, elset=PART-CABLE100-1__PICKEDSET2
 2866,
*Elset, elset=PART-CABLE100-2__PICKEDSET2
 2871,
*Elset, elset=PART-CABLE100-3__PICKEDSET2
 2876,
*Elset, elset=PART-CABLE100-4__PICKEDSET2
 2881,
*Elset, elset=PART-CABLE150-1__PICKEDSET2
 2867,
*Elset, elset=PART-CABLE150-2__PICKEDSET2
 2872,
*Elset, elset=PART-CABLE150-3__PICKEDSET2
 2877,
*Elset, elset=PART-CABLE150-4__PICKEDSET2
 2882,
*Elset, elset=PART-CABLE200-1__PICKEDSET2
 2868,
*Elset, elset=PART-CABLE200-2__PICKEDSET2
 2873,
*Elset, elset=PART-CABLE200-3__PICKEDSET2
 2878,
*Elset, elset=PART-CABLE200-4__PICKEDSET2
 2883,
*Elset, elset=PART-CABLE250-1__PICKEDSET2
 2869,
*Elset, elset=PART-CABLE250-2__PICKEDSET2
 2874,
*Elset, elset=PART-CABLE250-3__PICKEDSET2
 2879,
*Elset, elset=PART-CABLE250-4__PICKEDSET2
 2884,
*Elset, elset=PART-FLOOR-1__PICKEDSET20, generate
   1,  400,    1
*Elset, elset=PART-PIER-1__PICKEDSET4, generate
  881,  1360,     1
*Elset, elset=PART-PIER-2__PICKEDSET4, generate
 401,  880,    1
*Elset, elset=PART-RIVERBANK-1__PICKEDSET2, generate
 1361,  1760,     1
*Elset, elset=PART-RIVERBANK-2__PICKEDSET2, generate
 1761,  2160,     1
*Elset, elset=PART-SUPPORTBEAM-1__PICKEDSET2, generate
 2161,  2512,     1
*Elset, elset=PART-SUPPORTBEAM-2__PICKEDSET2, generate
 2513,  2864,     1
** Section: Section-1-PART-FLOOR-1__PICKEDSET20
*Shell Section, elset=PART-FLOOR-1__PICKEDSET20, material=CONCRETE
1., 5
** Section: Section-2-PART-PIER-2__PICKEDSET4
*Solid Section, elset=PART-PIER-2__PICKEDSET4, material=CONCRETE
,
** Section: Section-3-PART-PIER-1__PICKEDSET4
*Solid Section, elset=PART-PIER-1__PICKEDSET4, material=CONCRETE
,
** Section: Section-4-PART-RIVERBANK-1__PICKEDSET2
*Solid Section, elset=PART-RIVERBANK-1__PICKEDSET2, material=GRANITE
,
** Section: Section-5-PART-RIVERBANK-2__PICKEDSET2
*Solid Section, elset=PART-RIVERBANK-2__PICKEDSET2, material=GRANITE
,
** Section: Section-6-PART-SUPPORTBEAM-1__PICKEDSET2  Profile: Profile-1
*Beam Section, elset=PART-SUPPORTBEAM-1__PICKEDSET2, material=ALUMINUM, temperature=GRADIENTS, section=BOX
2., 2., 0.1, 0.1, 0.1, 0.1
0.,1.,-6.12323e-17
** Section: Section-7-PART-SUPPORTBEAM-2__PICKEDSET2  Profile: Profile-2
*Beam Section, elset=PART-SUPPORTBEAM-2__PICKEDSET2, material=ALUMINUM, temperature=GRADIENTS, section=BOX
2., 2., 0.1, 0.1, 0.1, 0.1
0.,1.,-6.12323e-17
** Section: Section-8-PART-CABLE50-1__PICKEDSET2
*Solid Section, elset=PART-CABLE50-1__PICKEDSET2, material=STEEL
0.25,
** Section: Section-9-PART-CABLE100-1__PICKEDSET2
*Solid Section, elset=PART-CABLE100-1__PICKEDSET2, material=STEEL
0.25,
** Section: Section-10-PART-CABLE150-1__PICKEDSET2
*Solid Section, elset=PART-CABLE150-1__PICKEDSET2, material=STEEL
0.25,
** Section: Section-11-PART-CABLE200-1__PICKEDSET2
*Solid Section, elset=PART-CABLE200-1__PICKEDSET2, material=STEEL
0.25,
** Section: Section-12-PART-CABLE250-1__PICKEDSET2
*Solid Section, elset=PART-CABLE250-1__PICKEDSET2, material=STEEL
0.25,
** Section: Section-13-PART-CABLE50-2__PICKEDSET2
*Solid Section, elset=PART-CABLE50-2__PICKEDSET2, material=STEEL
0.25,
** Section: Section-14-PART-CABLE100-2__PICKEDSET2
*Solid Section, elset=PART-CABLE100-2__PICKEDSET2, material=STEEL
0.25,
** Section: Section-15-PART-CABLE150-2__PICKEDSET2
*Solid Section, elset=PART-CABLE150-2__PICKEDSET2, material=STEEL
0.25,
** Section: Section-16-PART-CABLE200-2__PICKEDSET2
*Solid Section, elset=PART-CABLE200-2__PICKEDSET2, material=STEEL
0.25,
** Section: Section-17-PART-CABLE250-2__PICKEDSET2
*Solid Section, elset=PART-CABLE250-2__PICKEDSET2, material=STEEL
0.25,
** Section: Section-18-PART-CABLE50-3__PICKEDSET2
*Solid Section, elset=PART-CABLE50-3__PICKEDSET2, material=STEEL
0.25,
** Section: Section-19-PART-CABLE100-3__PICKEDSET2
*Solid Section, elset=PART-CABLE100-3__PICKEDSET2, material=STEEL
0.25,
** Section: Section-20-PART-CABLE150-3__PICKEDSET2
*Solid Section, elset=PART-CABLE150-3__PICKEDSET2, material=STEEL
0.25,
** Section: Section-21-PART-CABLE200-3__PICKEDSET2
*Solid Section, elset=PART-CABLE200-3__PICKEDSET2, material=STEEL
0.25,
** Section: Section-22-PART-CABLE250-3__PICKEDSET2
*Solid Section, elset=PART-CABLE250-3__PICKEDSET2, material=STEEL
0.25,
** Section: Section-23-PART-CABLE50-4__PICKEDSET2
*Solid Section, elset=PART-CABLE50-4__PICKEDSET2, material=STEEL
0.25,
** Section: Section-24-PART-CABLE100-4__PICKEDSET2
*Solid Section, elset=PART-CABLE100-4__PICKEDSET2, material=STEEL
0.25,
** Section: Section-25-PART-CABLE150-4__PICKEDSET2
*Solid Section, elset=PART-CABLE150-4__PICKEDSET2, material=STEEL
0.25,
** Section: Section-26-PART-CABLE200-4__PICKEDSET2
*Solid Section, elset=PART-CABLE200-4__PICKEDSET2, material=STEEL
0.25,
** Section: Section-27-PART-CABLE250-4__PICKEDSET2
*Solid Section, elset=PART-CABLE250-4__PICKEDSET2, material=STEEL
0.25,
*End Part
**  
**
** ASSEMBLY
**
*Assembly, name=Assembly
**  
*Instance, name=PART-1-1, part=PART-1
*End Instance
**  
*Nset, nset=M_SET-6, instance=PART-1-1
 2,
*Nset, nset=M_SET-8, instance=PART-1-1
 3,
*Nset, nset=M_SET-10, instance=PART-1-1
 5,
*Nset, nset=M_SET-12, instance=PART-1-1
 22,
*Nset, nset=M_SET-13, instance=PART-1-1
 7,
*Nset, nset=M_SET-14, instance=PART-1-1
 21,
*Nset, nset=M_SET-16, instance=PART-1-1
 1,
*Nset, nset=M_SET-18, instance=PART-1-1
 4,
*Nset, nset=M_SET-20, instance=PART-1-1
 6,
*Nset, nset=M_SET-22, instance=PART-1-1
 8,
*Nset, nset=M_SET-24, instance=PART-1-1
 19,
*Nset, nset=M_SET-26, instance=PART-1-1
 17,
*Nset, nset=M_SET-28, instance=PART-1-1
 15,
*Nset, nset=M_SET-30, instance=PART-1-1
 13,
*Nset, nset=M_SET-32, instance=PART-1-1
 11,
*Nset, nset=M_SET-34, instance=PART-1-1
 20,
*Nset, nset=M_SET-36, instance=PART-1-1
 18,
*Nset, nset=M_SET-38, instance=PART-1-1
 16,
*Nset, nset=M_SET-40, instance=PART-1-1
 14,
*Nset, nset=M_SET-42, instance=PART-1-1
 12,
** ... 46 like lines cut
*Elset, elset=M_SET-90, instance=PART-1-1, generate
 1781,  1784,     1
*Elset, elset=M_SET-92, instance=PART-1-1, generate
 1597,  1600,     1
*Nset, nset=M_SET-94, instance=PART-1-1
 513,
*Nset, nset=M_SET-96, instance=PART-1-1
 513,
*Nset, nset=M_SET-98, instance=PART-1-1
 1371,
*Nset, nset=M_SET-100, instance=PART-1-1
 1371,
*Nset, nset=PART-FLOOR-1__PICKEDSET20, instance=PART-1-1, generate
   1,  505,    1
*Nset, nset=PART-PIER-1__PICKEDSET4, instance=PART-1-1
 1367, 1368, 1369, 1370, 1371, 1372, 1373, 1374, 1375, 1376, 1377, 1378, 1379, 1380, 1381, 1382
 1383, 1384, 1385, 1386, 1387, 1388, 1389, 1390, 1391, 1392, 1393, 1394, 1395, 1396, 1397, 1398
 1399, 1400, 1401, 1402, 1403, 1404, 1405, 1406, 1407, 1408, 1409, 1410, 1411, 1412, 1413, 1414
 1415, 1416, 1417, 1418, 1419, 1420, 1421, 1422, 1423, 1424, 1425, 1426, 1427, 1428, 1429, 1430
 1431, 1432, 1433, 1434, 1435, 1436, 1437, 1438, 1439, 1440, 1441, 1442, 1443, 1444, 1445, 1446
 1447, 1448, 1449, 1450, 1451, 1452, 1453, 1454, 1455, 1456, 1457, 1458, 1459, 1460, 1461, 1462
 1463, 1464, 1465, 1466, 1467, 1468, 1469, 1470, 1471, 1472, 1473, 1474, 1475, 1476, 1477, 1478
 1479, 1480, 1481, 1482, 1483, 1484, 1485, 1486, 1487, 1488, 1489, 1490, 1491, 1492, 1493, 1494
 1495, 1496, 1497, 1498, 1499, 1500, 1501, 1502, 1503, 1504, 1505, 1506, 1507, 1508, 1509, 1510
 1511, 1512, 1513, 1514, 1515, 1516, 1518, 1519, 1520, 1521, 1522, 1523, 1524, 1525, 1526, 1527
 1528, 1529, 1530, 1531, 1532, 1533, 1534, 1535, 1536, 1537, 1538, 1539, 1540, 1541, 1542, 1543
 1544, 1545, 1546, 1547, 1548, 1549, 1550, 1551, 1552, 1553, 1554, 1555, 1556, 1557, 1558, 1559
 1560, 1561, 1562, 1563, 1564, 1565, 1566, 1567, 1568, 1569, 1570, 1571, 1572, 1573, 1574, 1575
 1576, 1577, 1578, 1579, 1580, 1581, 1582, 1583, 1584, 1585, 1586, 1587, 1588, 1589, 1590, 1591
 1592, 1593, 1594, 1595, 1596, 1597, 1598, 1599, 1600, 1601, 1602, 1603, 1604, 1605, 1606, 1607
 1608, 1609, 1610, 1611, 1612, 1613, 1614, 1615, 1616, 1617, 1618, 1619, 1620, 1621, 1622, 1623
 1624, 1625, 1626, 1627, 1628, 1629, 1630, 1631, 1632, 1633, 1634, 1635, 1636, 1637, 1638, 1639
 1640, 1641, 1642, 1643, 1644, 1645, 1646, 1647, 1648, 1649, 1650, 1651, 1652, 1653, 1654, 1655
 1656, 1657, 1658, 1659, 1660, 1661, 1662, 1663, 1664, 1665, 1666, 1667, 1668, 1669, 1670, 1671
 1672, 1673, 1674, 1675, 1676, 1677, 1678, 1679, 1680, 1681, 1682, 1683, 1684, 1685, 1686, 1687
** ... 34 like lines cut
*Nset, nset=PART-PIER-2__PICKEDSET4, instance=PART-1-1
  506,  507,  508,  509,  510,  511,  512,  513,  514,  515,  516,  517,  518,  519,  520,  521
  522,  523,  524,  525,  526,  527,  528,  529,  530,  531,  532,  533,  534,  535,  536,  537
  538,  539,  540,  541,  542,  543,  544,  545,  546,  547,  548,  549,  550,  551,  552,  553
  554,  555,  556,  557,  558,  559,  560,  561,  562,  563,  564,  565,  566,  567,  568,  569
  570,  571,  572,  573,  574,  575,  576,  577,  578,  579,  580,  581,  582,  583,  584,  585
  586,  587,  588,  589,  590,  591,  592,  593,  594,  595,  596,  597,  599,  600,  601,  602
  603,  604,  605,  606,  607,  608,  609,  610,  611,  612,  613,  614,  615,  616,  617,  618
  619,  620,  621,  622,  623,  624,  625,  626,  627,  628,  629,  630,  631,  632,  633,  634
  635,  636,  637,  638,  639,  640,  641,  642,  643,  644,  645,  646,  647,  648,  649,  650
  651,  652,  653,  654,  655,  656,  657,  658,  659,  660,  661,  662,  663,  664,  665,  666
  667,  668,  669,  670,  671,  672,  673,  674,  675,  676,  677,  678,  679,  680,  681,  682
  683,  684,  685,  686,  687,  688,  689,  690,  691,  692,  693,  694,  695,  696,  697,  698
  699,  700,  701,  702,  703,  704,  705,  706,  707,  708,  709,  710,  711,  712,  713,  714
  715,  716,  717,  718,  719,  720,  721,  722,  723,  724,  725,  726,  727,  728,  729,  730
  731,  732,  733,  734,  735,  736,  737,  738,  739,  740,  741,  742,  743,  744,  745,  746
  747,  748,  749,  750,  751,  752,  753,  754,  755,  756,  757,  758,  759,  760,  761,  762
  763,  764,  765,  766,  767,  768,  769,  770,  771,  772,  773,  774,  775,  776,  777,  778
  779,  780,  781,  782,  783,  784,  785,  786,  787,  788,  789,  790,  791,  792,  793,  794
  795,  796,  797,  798,  799,  800,  801,  802,  803,  804,  805,  806,  807,  808,  809,  810
  811,  812,  813,  814,  815,  816,  817,  818,  819,  820,  821,  822,  823,  824,  825,  826
** ... 34 like lines cut
*Nset, nset=PART-RIVERBANK-1__PICKEDSET2, instance=PART-1-1
 2228, 2229, 2230, 2231, 2232, 2235, 2236, 2237, 2238, 2239, 2240, 2241, 2242, 2243, 2244, 2245
 2246, 2247, 2248, 2249, 2250, 2251, 2252, 2253, 2254, 2255, 2256, 2257, 2258, 2259, 2260, 2261
 2262, 2263, 2267, 2268, 2269, 2270, 2271, 2272, 2273, 2274, 2275, 2276, 2277, 2278, 2279, 2280
 2281, 2282, 2283, 2284, 2285, 2286, 2287, 2288, 2289, 2290, 2291, 2292, 2293, 2294, 2295, 2296
 2297, 2298, 2299, 2300, 2301, 2302, 2303, 2304, 2305, 2306, 2307, 2308, 2309, 2310, 2311, 2312
 2313, 2314, 2315, 2316, 2317, 2318, 2319, 2320, 2321, 2322, 2323, 2324, 2325, 2326, 2327, 2328
 2329, 2330, 2331, 2332, 2333, 2334, 2335, 2336, 2337, 2338, 2339, 2340, 2341, 2342, 2343, 2344
 2345, 2346, 2347, 2348, 2349, 2350, 2351, 2352, 2353, 2354, 2355, 2356, 2357, 2358, 2359, 2360
 2361, 2362, 2363, 2364, 2365, 2366, 2367, 2368, 2369, 2370, 2371, 2372, 2373, 2374, 2375, 2376
 2377, 2378, 2379, 2380, 2381, 2382, 2383, 2384, 2385, 2386, 2387, 2388, 2389, 2390, 2391, 2392
 2393, 2394, 2395, 2396, 2397, 2398, 2399, 2400, 2401, 2402, 2403, 2404, 2405, 2406, 2407, 2408
 2409, 2410, 2411, 2412, 2413, 2414, 2415, 2416, 2417, 2418, 2419, 2420, 2421, 2422, 2423, 2424
 2425, 2426, 2427, 2428, 2429, 2430, 2431, 2432, 2433, 2434, 2435, 2436, 2437, 2438, 2439, 2440
 2441, 2442, 2443, 2444, 2445, 2446, 2447, 2448, 2449, 2450, 2451, 2452, 2453, 2454, 2455, 2456
 2457, 2458, 2459, 2460, 2461, 2462, 2463, 2464, 2465, 2466, 2467, 2468, 2469, 2470, 2471, 2472
 2473, 2474, 2475, 2476, 2477, 2478, 2479, 2480, 2481, 2482, 2483, 2484, 2485, 2486, 2487, 2488
 2489, 2490, 2491, 2492, 2493, 2494, 2495, 2496, 2497, 2498, 2499, 2500, 2501, 2502, 2503, 2504
 2505, 2506, 2507, 2508, 2509, 2510, 2511, 2512, 2513, 2514, 2515, 2516, 2517, 2518, 2519, 2520
 2521, 2522, 2523, 2524, 2525, 2526, 2527, 2528, 2529, 2530, 2531, 2532, 2533, 2534, 2535, 2536
 2537, 2538, 2539, 2540, 2541, 2542, 2543, 2544, 2545, 2546, 2547, 2548, 2549, 2550, 2551, 2552
** ... 18 like lines cut
*Nset, nset=PART-RIVERBANK-2__PICKEDSET2, instance=PART-1-1
 2833, 2834, 2837, 2838, 2839, 2840, 2841, 2842, 2843, 2844, 2845, 2846, 2847, 2848, 2849, 2850
 2851, 2852, 2856, 2857, 2858, 2859, 2860, 2861, 2862, 2863, 2864, 2865, 2866, 2867, 2868, 2869
 2870, 2871, 2872, 2873, 2874, 2875, 2876, 2877, 2878, 2879, 2880, 2881, 2882, 2883, 2884, 2885
 2886, 2887, 2888, 2889, 2890, 2891, 2892, 2893, 2894, 2895, 2896, 2897, 2898, 2899, 2900, 2901
 2902, 2903, 2904, 2905, 2906, 2907, 2908, 2909, 2910, 2911, 2912, 2913, 2914, 2915, 2916, 2917
 2918, 2919, 2920, 2921, 2922, 2923, 2924, 2925, 2926, 2927, 2928, 2929, 2930, 2931, 2932, 2933
 2934, 2935, 2936, 2937, 2938, 2939, 2940, 2941, 2942, 2943, 2944, 2945, 2946, 2947, 2948, 2949
 2950, 2951, 2952, 2953, 2954, 2955, 2956, 2957, 2958, 2959, 2960, 2961, 2962, 2963, 2964, 2965
 2966, 2967, 2968, 2969, 2970, 2971, 2972, 2973, 2974, 2975, 2976, 2977, 2978, 2979, 2980, 2981
 2982, 2983, 2984, 2985, 2986, 2987, 2988, 2989, 2990, 2991, 2992, 2993, 2994, 2995, 2996, 2997
 2998, 2999, 3000, 3001, 3002, 3003, 3004, 3005, 3006, 3007, 3008, 3009, 3010, 3011, 3012, 3013
 3014, 3015, 3016, 3017, 3018, 3019, 3020, 3021, 3022, 3023, 3024, 3025, 3026, 3027, 3028, 3029
 3030, 3031, 3032, 3033, 3034, 3035, 3036, 3037, 3038, 3039, 3040, 3041, 3042, 3043, 3044, 3045
 3046, 3047, 3048, 3049, 3050, 3051, 3052, 3053, 3054, 3055, 3056, 3057, 3058, 3059, 3060, 3061
 3062, 3063, 3064, 3065, 3066, 3067, 3068, 3069, 3070, 3071, 3072, 3073, 3074, 3075, 3076, 3077
 3078, 3079, 3080, 3081, 3082, 3083, 3084, 3085, 3086, 3087, 3088, 3089, 3090, 3091, 3092, 3093
 3094, 3095, 3096, 3097, 3098, 3099, 3100, 3101, 3102, 3103, 3104, 3105, 3106, 3107, 3108, 3109
 3110, 3111, 3112, 3113, 3114, 3115, 3116, 3117, 3118, 3119, 3120, 3121, 3122, 3123, 3124, 3125
 3126, 3127, 3128, 3129, 3130, 3131, 3132, 3133, 3134, 3135, 3136, 3137, 3138, 3139, 3140, 3141
 3142, 3143, 3144, 3145, 3146, 3147, 3148, 3149, 3150, 3151, 3152, 3153, 3154, 3155, 3156, 3157
** ... 18 like lines cut
*Nset, nset=PART-SUPPORTBEAM-1__PICKEDSET2, instance=PART-1-1
 3438, 3441, 3444, 3446, 3448, 3450, 3452, 3454, 3458, 3459, 3460, 3461, 3462, 3463, 3464, 3465
 3466, 3467, 3468, 3469, 3470, 3471, 3472, 3473, 3474, 3475, 3476, 3477, 3478, 3479, 3480, 3481
 3482, 3483, 3484, 3485, 3486, 3487, 3488, 3489, 3490, 3491, 3492, 3493, 3494, 3495, 3496, 3497
 3498, 3499, 3500, 3501, 3502, 3503, 3504, 3505, 3506, 3507, 3508, 3509, 3510, 3511, 3512, 3513
 3514, 3515, 3516, 3517, 3518, 3519, 3520, 3521, 3522, 3523, 3524, 3525, 3526, 3527, 3528, 3529
 3530, 3531, 3532, 3533, 3534, 3535, 3536, 3537, 3538, 3539, 3540, 3541, 3542, 3543, 3544, 3545
 3546, 3547, 3548, 3549, 3550, 3551, 3552, 3553, 3554, 3555, 3556, 3557, 3558, 3559, 3560, 3561
 3562, 3563, 3564, 3565, 3566, 3567, 3568, 3569, 3570, 3571, 3572, 3573, 3574, 3575, 3576, 3577
 3578, 3579, 3580, 3581, 3582, 3583, 3584, 3585, 3586, 3587, 3588, 3589, 3590, 3591, 3592, 3593
 3594, 3595, 3596, 3597, 3598, 3599, 3600, 3601, 3602, 3603, 3604, 3605, 3606, 3607, 3608, 3609
 3610, 3611, 3612, 3613, 3614, 3615, 3616, 3617, 3618, 3619, 3620, 3622, 3623, 3624, 3625, 3626
 3627, 3628, 3629, 3630, 3631, 3632, 3633, 3634, 3635, 3636, 3637, 3638, 3639, 3640, 3641, 3642
 3643, 3644, 3645, 3646, 3647, 3648, 3649, 3650, 3651, 3652, 3653, 3654, 3655, 3656, 3657, 3658
 3659, 3660, 3661, 3662, 3663, 3664, 3665, 3666, 3667, 3668, 3669, 3670, 3671, 3672, 3673, 3674
 3675, 3676, 3677, 3678, 3679, 3680, 3681, 3682, 3683, 3684, 3685, 3686, 3687, 3688, 3689, 3690
 3691, 3692, 3693, 3694, 3695, 3696, 3697, 3698, 3699, 3700, 3701, 3702, 3703, 3704, 3705, 3706
 3707, 3708, 3709, 3710, 3711, 3712, 3713, 3714, 3715, 3716, 3717, 3718, 3719, 3720, 3721, 3722
 3723, 3724, 3725, 3726, 3727, 3728, 3729, 3730, 3731, 3732, 3733, 3734, 3735, 3736, 3737, 3738
 3739, 3740, 3741, 3742, 3743, 3744, 3745, 3746, 3747, 3748, 3749, 3750, 3751, 3752, 3753, 3754
 3755, 3756, 3757, 3758, 3759, 3760, 3761, 3762, 3763, 3764, 3765, 3766, 3767, 3768, 3769, 3770
 3771, 3772, 3773, 3774, 3775, 3776, 3777, 3778, 3779, 3780
*Nset, nset=PART-SUPPORTBEAM-2__PICKEDSET2, instance=PART-1-1
 3781, 3784, 3787, 3789, 3791, 3793, 3795, 3797, 3801, 3802, 3803, 3804, 3805, 3806, 3807, 3808
 3809, 3810, 3811, 3812, 3813, 3814, 3815, 3816, 3817, 3818, 3819, 3820, 3821, 3822, 3823, 3824
 3825, 3826, 3827, 3828, 3829, 3830, 3831, 3832, 3833, 3834, 3835, 3836, 3837, 3838, 3839, 3840
 3841, 3842, 3843, 3844, 3845, 3846, 3847, 3848, 3849, 3850, 3851, 3852, 3853, 3854, 3855, 3856
 3857, 3858, 3859, 3860, 3861, 3862, 3863, 3864, 3865, 3866, 3867, 3868, 3869, 3870, 3871, 3872
 3873, 3874, 3875, 3876, 3877, 3878, 3879, 3880, 3881, 3882, 3883, 3884, 3885, 3886, 3887, 3888
 3889, 3890, 3891, 3892, 3893, 3894, 3895, 3896, 3897, 3898, 3899, 3900, 3901, 3902, 3903, 3904
 3905, 3906, 3907, 3908, 3909, 3910, 3911, 3912, 3913, 3914, 3915, 3916, 3917, 3918, 3919, 3920
 3921, 3922, 3923, 3924, 3925, 3926, 3927, 3928, 3929, 3930, 3931, 3932, 3933, 3934, 3935, 3936
 3937, 3938, 3939, 3940, 3941, 3942, 3943, 3944, 3945, 3946, 3947, 3948, 3949, 3950, 3951, 3952
 3953, 3954, 3955, 3956, 3957, 3958, 3959, 3960, 3961, 3962, 3963, 3965, 3966, 3967, 3968, 3969
 3970, 3971, 3972, 3973, 3974, 3975, 3976, 3977, 3978, 3979, 3980, 3981, 3982, 3983, 3984, 3985
 3986, 3987, 3988, 3989, 3990, 3991, 3992, 3993, 3994, 3995, 3996, 3997, 3998, 3999, 4000, 4001
 4002, 4003, 4004, 4005, 4006, 4007, 4008, 4009, 4010, 4011, 4012, 4013, 4014, 4015, 4016, 4017
 4018, 4019, 4020, 4021, 4022, 4023, 4024, 4025, 4026, 4027, 4028, 4029, 4030, 4031, 4032, 4033
 4034, 4035, 4036, 4037, 4038, 4039, 4040, 4041, 4042, 4043, 4044, 4045, 4046, 4047, 4048, 4049
 4050, 4051, 4052, 4053, 4054, 4055, 4056, 4057, 4058, 4059, 4060, 4061, 4062, 4063, 4064, 4065
 4066, 4067, 4068, 4069, 4070, 4071, 4072, 4073, 4074, 4075, 4076, 4077, 4078, 4079, 4080, 4081
 4082, 4083, 4084, 4085, 4086, 4087, 4088, 4089, 4090, 4091, 4092, 4093, 4094, 4095, 4096, 4097
 4098, 4099, 4100, 4101, 4102, 4103, 4104, 4105, 4106, 4107, 4108, 4109, 4110, 4111, 4112, 4113
 4114, 4115, 4116, 4117, 4118, 4119, 4120, 4121, 4122, 4123
*Nset, nset=SET-102, instance=PART-1-1
  506,  507,  508,  509,  514,  515,  518,  519,  520,  521,  522,  523,  686,  687,  688,  689
  690,  774,  775, 1012, 1013, 1367, 1368, 1369, 1370, 1375, 1376, 1379, 1380, 1381, 1382, 1383
 1384, 1547, 1548, 1549, 1550, 1551, 1635, 1636, 1873, 1874, 2236, 2237, 2238, 2239, 2311, 2312
 2313, 2320, 2321, 2322, 2326, 2327, 2328, 2329, 2330, 2331, 2332, 2333, 2334, 2335, 2336, 2337
 2338, 2339, 2340, 2341, 2342, 2343, 2590, 2591, 2592, 2593, 2594, 2595, 2596, 2597, 2598, 2599
 2600, 2601, 2602, 2603, 2604, 2605, 2606, 2607, 2608, 2609, 2610, 2611, 2612, 2613, 2614, 2615
 2616, 2841, 2842, 2843, 2844, 2916, 2917, 2918, 2925, 2926, 2927, 2931, 2932, 2933, 2934, 2935
 2936, 2937, 2938, 2939, 2940, 2941, 2942, 2943, 2944, 2945, 2946, 2947, 2948, 3195, 3196, 3197
 3198, 3199, 3200, 3201, 3202, 3203, 3204, 3205, 3206, 3207, 3208, 3209, 3210, 3211, 3212, 3213
 3214, 3215, 3216, 3217, 3218, 3219, 3220, 3221
*Elset, elset=SET-102, instance=PART-1-1
  401,  402,  403,  404,  405,  406,  641,  642,  643,  644,  645,  646,  881,  882,  883,  884
  885,  886, 1121, 1122, 1123, 1124, 1125, 1126, 1613, 1614, 1615, 1616, 1629, 1630, 1631, 1632
 1645, 1646, 1647, 1648, 1661, 1662, 1663, 1664, 1677, 1678, 1679, 1680, 1693, 1694, 1695, 1696
 1709, 1710, 1711, 1712, 1725, 1726, 1727, 1728, 1741, 1742, 1743, 1744, 1757, 1758, 1759, 1760
 2013, 2014, 2015, 2016, 2029, 2030, 2031, 2032, 2045, 2046, 2047, 2048, 2061, 2062, 2063, 2064
 2077, 2078, 2079, 2080, 2093, 2094, 2095, 2096, 2109, 2110, 2111, 2112, 2125, 2126, 2127, 2128
 2141, 2142, 2143, 2144, 2157, 2158, 2159, 2160
*Elset, elset=SET-CABLESGROUP1, instance=PART-1-1, generate
 2865,  2869,     1
*Elset, elset=SET-CABLESGROUP2, instance=PART-1-1, generate
 2870,  2874,     1
*Elset, elset=SET-CABLESGROUP3, instance=PART-1-1, generate
 2875,  2879,     1
*Nset, nset=S_SET-90, instance=PART-1-1
  21,  22, 224, 225, 226
*Elset, elset=S_SET-90, instance=PART-1-1, generate
 397,  400,    1
*Nset, nset=S_SET-92, instance=PART-1-1
  19,  20, 203, 204, 205
*Elset, elset=S_SET-92, instance=PART-1-1, generate
 357,  360,    1
*Nset, nset=M_SET-6_CNS_, internal, instance=PART-1-1
 2,
*Nset, nset=M_SET-8_CNS_, internal, instance=PART-1-1
 3,
*Nset, nset=M_SET-10_CNS_, internal, instance=PART-1-1
 5,
*Nset, nset=M_SET-12_CNS_, internal, instance=PART-1-1
 22,
*Nset, nset=M_SET-13_CNS_, internal, instance=PART-1-1
 7,
*Nset, nset=M_SET-14_CNS_, internal, instance=PART-1-1
 21,
*Nset, nset=M_SET-16_CNS_, internal, instance=PART-1-1
 1,
*Nset, nset=M_SET-18_CNS_, internal, instance=PART-1-1
 4,
*Nset, nset=M_SET-20_CNS_, internal, instance=PART-1-1
 6,
*Nset, nset=M_SET-22_CNS_, internal, instance=PART-1-1
 8,
*Nset, nset=M_SET-24_CNS_, internal, instance=PART-1-1
 19,
*Nset, nset=M_SET-26_CNS_, internal, instance=PART-1-1
 17,
*Nset, nset=M_SET-28_CNS_, internal, instance=PART-1-1
 15,
*Nset, nset=M_SET-30_CNS_, internal, instance=PART-1-1
 13,
*Nset, nset=M_SET-32_CNS_, internal, instance=PART-1-1
 11,
*Nset, nset=M_SET-34_CNS_, internal, instance=PART-1-1
 20,
*Nset, nset=M_SET-36_CNS_, internal, instance=PART-1-1
 18,
*Nset, nset=M_SET-38_CNS_, internal, instance=PART-1-1
 16,
*Nset, nset=M_SET-40_CNS_, internal, instance=PART-1-1
 14,
*Nset, nset=M_SET-42_CNS_, internal, instance=PART-1-1
** ... 53 like lines cut
*Nset, nset=S_SET-90_CNS_, internal, instance=PART-1-1
  21,  22, 224, 225, 226
*Nset, nset=S_SET-92_CNS_, internal, instance=PART-1-1
  19,  20, 203, 204, 205
*Surface, type=NODE, name=M_SET-6_CNS__CNS_, internal
M_SET-6_CNS_, 1.
*Surface, type=NODE, name=S_SET-6_CNS__CNS_, internal
S_SET-6_CNS_, 1.
*Surface, type=NODE, name=M_SET-8_CNS__CNS_, internal
M_SET-8_CNS_, 1.
*Surface, type=NODE, name=S_SET-8_CNS__CNS_, internal
S_SET-8_CNS_, 1.
*Surface, type=NODE, name=M_SET-10_CNS__CNS_, internal
M_SET-10_CNS_, 1.
*Surface, type=NODE, name=S_SET-10_CNS__CNS_, internal
S_SET-10_CNS_, 1.
*Surface, type=NODE, name=M_SET-12_CNS__CNS_, internal
M_SET-12_CNS_, 1.
*Surface, type=NODE, name=S_SET-12_CNS__CNS_, internal
S_SET-12_CNS_, 1.
*Surface, type=NODE, name=M_SET-13_CNS__CNS_, internal
M_SET-13_CNS_, 1.
*Surface, type=NODE, name=S_SET-13_CNS__CNS_, internal
S_SET-13_CNS_, 1.
*Surface, type=NODE, name=M_SET-14_CNS__CNS_, internal
M_SET-14_CNS_, 1.
*Surface, type=NODE, name=S_SET-14_CNS__CNS_, internal
S_SET-14_CNS_, 1.
*Surface, type=NODE, name=M_SET-16_CNS__CNS_, internal
M_SET-16_CNS_, 1.
*Surface, type=NODE, name=S_SET-16_CNS__CNS_, internal
S_SET-16_CNS_, 1.
*Surface, type=NODE, name=M_SET-18_CNS__CNS_, internal
M_SET-18_CNS_, 1.
*Surface, type=NODE, name=S_SET-18_CNS__CNS_, internal
S_SET-18_CNS_, 1.
*Surface, type=NODE, name=M_SET-20_CNS__CNS_, internal
M_SET-20_CNS_, 1.
*Surface, type=NODE, name=S_SET-20_CNS__CNS_, internal
S_SET-20_CNS_, 1.
*Surface, type=NODE, name=M_SET-22_CNS__CNS_, internal
M_SET-22_CNS_, 1.
*Surface, type=NODE, name=S_SET-22_CNS__CNS_, internal
S_SET-22_CNS_, 1.
*Surface, type=NODE, name=M_SET-24_CNS__CNS_, internal
M_SET-24_CNS_, 1.
*Surface, type=NODE, name=S_SET-24_CNS__CNS_, internal
S_SET-24_CNS_, 1.
*Surface, type=NODE, name=M_SET-26_CNS__CNS_, internal
M_SET-26_CNS_, 1.
*Surface, type=NODE, name=S_SET-26_CNS__CNS_, internal
S_SET-26_CNS_, 1.
*Surface, type=NODE, name=M_SET-28_CNS__CNS_, internal
M_SET-28_CNS_, 1.
*Surface, type=NODE, name=S_SET-28_CNS__CNS_, internal
S_SET-28_CNS_, 1.
*Surface, type=NODE, name=M_SET-30_CNS__CNS_, internal
M_SET-30_CNS_, 1.
*Surface, type=NODE, name=S_SET-30_CNS__CNS_, internal
S_SET-30_CNS_, 1.
*Surface, type=NODE, name=M_SET-32_CNS__CNS_, internal
M_SET-32_CNS_, 1.
*Surface, type=NODE, name=S_SET-32_CNS__CNS_, internal
S_SET-32_CNS_, 1.
*Surface, type=NODE, name=M_SET-34_CNS__CNS_, internal
M_SET-34_CNS_, 1.
*Surface, type=NODE, name=S_SET-34_CNS__CNS_, internal
S_SET-34_CNS_, 1.
*Surface, type=NODE, name=M_SET-36_CNS__CNS_, internal
M_SET-36_CNS_, 1.
*Surface, type=NODE, name=S_SET-36_CNS__CNS_, internal
S_SET-36_CNS_, 1.
*Surface, type=NODE, name=M_SET-38_CNS__CNS_, internal
M_SET-38_CNS_, 1.
*Surface, type=NODE, name=S_SET-38_CNS__CNS_, internal
S_SET-38_CNS_, 1.
*Surface, type=NODE, name=M_SET-40_CNS__CNS_, internal
M_SET-40_CNS_, 1.
*Surface, type=NODE, name=S_SET-40_CNS__CNS_, internal
S_SET-40_CNS_, 1.
*Surface, type=NODE, name=M_SET-42_CNS__CNS_, internal
M_SET-42_CNS_, 1.
*Surface, type=NODE, name=S_SET-42_CNS__CNS_, internal
S_SET-42_CNS_, 1.
*Surface, type=NODE, name=M_SET-46_CNS__CNS_, internal
M_SET-46_CNS_, 1.
*Surface, type=NODE, name=S_SET-46_CNS__CNS_, internal
S_SET-46_CNS_, 1.
*Surface, type=NODE, name=M_SET-48_CNS__CNS_, internal
M_SET-48_CNS_, 1.
*Surface, type=NODE, name=S_SET-48_CNS__CNS_, internal
S_SET-48_CNS_, 1.
*Surface, type=NODE, name=M_SET-50_CNS__CNS_, internal
M_SET-50_CNS_, 1.
*Surface, type=NODE, name=S_SET-50_CNS__CNS_, internal
S_SET-50_CNS_, 1.
*Surface, type=NODE, name=M_SET-52_CNS__CNS_, internal
M_SET-52_CNS_, 1.
*Surface, type=NODE, name=S_SET-52_CNS__CNS_, internal
S_SET-52_CNS_, 1.
*Surface, type=NODE, name=M_SET-54_CNS__CNS_, internal
M_SET-54_CNS_, 1.
*Surface, type=NODE, name=S_SET-54_CNS__CNS_, internal
S_SET-54_CNS_, 1.
*Surface, type=NODE, name=M_SET-56_CNS__CNS_, internal
M_SET-56_CNS_, 1.
*Surface, type=NODE, name=S_SET-56_CNS__CNS_, internal
S_SET-56_CNS_, 1.
*Surface, type=NODE, name=M_SET-58_CNS__CNS_, internal
M_SET-58_CNS_, 1.
*Surface, type=NODE, name=S_SET-58_CNS__CNS_, internal
S_SET-58_CNS_, 1.
*Surface, type=NODE, name=M_SET-60_CNS__CNS_, internal
M_SET-60_CNS_, 1.
*Surface, type=NODE, name=S_SET-60_CNS__CNS_, internal
S_SET-60_CNS_, 1.
*Surface, type=NODE, name=M_SET-62_CNS__CNS_, internal
M_SET-62_CNS_, 1.
*Surface, type=NODE, name=S_SET-62_CNS__CNS_, internal
S_SET-62_CNS_, 1.
*Surface, type=NODE, name=M_SET-64_CNS__CNS_, internal
M_SET-64_CNS_, 1.
*Surface, type=NODE, name=S_SET-64_CNS__CNS_, internal
S_SET-64_CNS_, 1.
*Surface, type=NODE, name=M_SET-66_CNS__CNS_, internal
M_SET-66_CNS_, 1.
*Surface, type=NODE, name=S_SET-66_CNS__CNS_, internal
S_SET-66_CNS_, 1.
*Surface, type=NODE, name=M_SET-68_CNS__CNS_, internal
M_SET-68_CNS_, 1.
*Surface, type=NODE, name=S_SET-68_CNS__CNS_, internal
S_SET-68_CNS_, 1.
*Surface, type=NODE, name=M_SET-70_CNS__CNS_, internal
M_SET-70_CNS_, 1.
*Surface, type=NODE, name=S_SET-70_CNS__CNS_, internal
S_SET-70_CNS_, 1.
*Surface, type=NODE, name=M_SET-72_CNS__CNS_, internal
M_SET-72_CNS_, 1.
*Surface, type=NODE, name=S_SET-72_CNS__CNS_, internal
S_SET-72_CNS_, 1.
*Surface, type=NODE, name=M_SET-74_CNS__CNS_, internal
M_SET-74_CNS_, 1.
*Surface, type=NODE, name=S_SET-74_CNS__CNS_, internal
S_SET-74_CNS_, 1.
*Surface, type=NODE, name=M_SET-76_CNS__CNS_, internal
M_SET-76_CNS_, 1.
*Surface, type=NODE, name=S_SET-76_CNS__CNS_, internal
S_SET-76_CNS_, 1.
*Surface, type=NODE, name=M_SET-78_CNS__CNS_, internal
M_SET-78_CNS_, 1.
*Surface, type=NODE, name=S_SET-78_CNS__CNS_, internal
S_SET-78_CNS_, 1.
*Surface, type=NODE, name=M_SET-80_CNS__CNS_, internal
M_SET-80_CNS_, 1.
*Surface, type=NODE, name=S_SET-80_CNS__CNS_, internal
S_SET-80_CNS_, 1.
*Surface, type=NODE, name=M_SET-82_CNS__CNS_, internal
M_SET-82_CNS_, 1.
*Surface, type=NODE, name=S_SET-82_CNS__CNS_, internal
S_SET-82_CNS_, 1.
*Surface, type=NODE, name=M_SET-84_CNS__CNS_, internal
M_SET-84_CNS_, 1.
*Surface, type=NODE, name=S_SET-84_CNS__CNS_, internal
S_SET-84_CNS_, 1.
*Surface, type=NODE, name=M_SET-86_CNS__CNS_, internal
M_SET-86_CNS_, 1.
*Surface, type=NODE, name=S_SET-86_CNS__CNS_, internal
S_SET-86_CNS_, 1.
*Surface, type=NODE, name=M_SET-88_CNS__CNS_, internal
M_SET-88_CNS_, 1.
*Surface, type=NODE, name=S_SET-88_CNS__CNS_, internal
S_SET-88_CNS_, 1.
*Surface, type=NODE, name=M_SET-90_CNS__CNS_, internal
M_SET-90_CNS_, 1.
*Surface, type=NODE, name=S_SET-90_CNS__CNS_, internal
S_SET-90_CNS_, 1.
*Surface, type=NODE, name=M_SET-92_CNS__CNS_, internal
M_SET-92_CNS_, 1.
*Surface, type=NODE, name=S_SET-92_CNS__CNS_, internal
S_SET-92_CNS_, 1.
*Surface, type=NODE, name=M_SET-94_CNS__CNS_, internal
M_SET-94_CNS_, 1.
*Surface, type=NODE, name=S_SET-94_CNS__CNS_, internal
S_SET-94_CNS_, 1.
*Surface, type=NODE, name=M_SET-96_CNS__CNS_, internal
M_SET-96_CNS_, 1.
*Surface, type=NODE, name=S_SET-96_CNS__CNS_, internal
S_SET-96_CNS_, 1.
*Surface, type=NODE, name=M_SET-98_CNS__CNS_, internal
M_SET-98_CNS_, 1.
*Surface, type=NODE, name=S_SET-98_CNS__CNS_, internal
S_SET-98_CNS_, 1.
*Surface, type=NODE, name=M_SET-100_CNS__CNS_, internal
M_SET-100_CNS_, 1.
*Surface, type=NODE, name=S_SET-100_CNS__CNS_, internal
S_SET-100_CNS_, 1.
** Constraint: CONSTRAINT-2-1
*Tie, name=CONSTRAINT-2-1, adjust=yes, no rotation
S_SET-6_CNS__CNS_, M_SET-6_CNS__CNS_
** Constraint: CONSTRAINT-3-1
*Tie, name=CONSTRAINT-3-1, adjust=yes, no rotation
S_SET-8_CNS__CNS_, M_SET-8_CNS__CNS_
** Constraint: CONSTRAINT-4-1
*Tie, name=CONSTRAINT-4-1, adjust=yes, no rotation
S_SET-10_CNS__CNS_, M_SET-10_CNS__CNS_
** Constraint: CONSTRAINT-5-1
*Tie, name=CONSTRAINT-5-1, adjust=yes, no rotation
S_SET-12_CNS__CNS_, M_SET-12_CNS__CNS_
** Constraint: CONSTRAINT-6-1
*Tie, name=CONSTRAINT-6-1, adjust=yes, no rotation
S_SET-13_CNS__CNS_, M_SET-13_CNS__CNS_
** Constraint: CONSTRAINT-7-1
*Tie, name=CONSTRAINT-7-1, adjust=yes
S_SET-14_CNS__CNS_, M_SET-14_CNS__CNS_
** Constraint: CONSTRAINT-8-1
*Tie, name=CONSTRAINT-8-1, adjust=yes
S_SET-16_CNS__CNS_, M_SET-16_CNS__CNS_
** Constraint: CONSTRAINT-9-1
*Tie, name=CONSTRAINT-9-1, adjust=no
S_SET-18_CNS__CNS_, M_SET-18_CNS__CNS_
** Constraint: CONSTRAINT-10-1
*Tie, name=CONSTRAINT-10-1, adjust=yes, no rotation
S_SET-20_CNS__CNS_, M_SET-20_CNS__CNS_
** Constraint: CONSTRAINT-11-1
*Tie, name=CONSTRAINT-11-1, adjust=yes, no rotation
S_SET-22_CNS__CNS_, M_SET-22_CNS__CNS_
** Constraint: CONSTRAINT-12-1
*Tie, name=CONSTRAINT-12-1, adjust=yes, no rotation
S_SET-24_CNS__CNS_, M_SET-24_CNS__CNS_
** Constraint: CONSTRAINT-13-1
*Tie, name=CONSTRAINT-13-1, adjust=yes, no rotation
S_SET-26_CNS__CNS_, M_SET-26_CNS__CNS_
** Constraint: CONSTRAINT-14-1
*Tie, name=CONSTRAINT-14-1, adjust=yes, no rotation
S_SET-28_CNS__CNS_, M_SET-28_CNS__CNS_
** Constraint: CONSTRAINT-15-1
*Tie, name=CONSTRAINT-15-1, adjust=yes, no rotation
S_SET-30_CNS__CNS_, M_SET-30_CNS__CNS_
** Constraint: CONSTRAINT-16-1
*Tie, name=CONSTRAINT-16-1, adjust=yes, no rotation
S_SET-32_CNS__CNS_, M_SET-32_CNS__CNS_
** Constraint: CONSTRAINT-17-1
*Tie, name=CONSTRAINT-17-1, adjust=yes, no rotation
S_SET-34_CNS__CNS_, M_SET-34_CNS__CNS_
** Constraint: CONSTRAINT-18-1
*Tie, name=CONSTRAINT-18-1, adjust=yes, no rotation
S_SET-36_CNS__CNS_, M_SET-36_CNS__CNS_
** Constraint: CONSTRAINT-19-1
*Tie, name=CONSTRAINT-19-1, adjust=yes, no rotation
S_SET-38_CNS__CNS_, M_SET-38_CNS__CNS_
** Constraint: CONSTRAINT-20-1
*Tie, name=CONSTRAINT-20-1, adjust=yes, no rotation
S_SET-40_CNS__CNS_, M_SET-40_CNS__CNS_
** Constraint: CONSTRAINT-21-1
*Tie, name=CONSTRAINT-21-1, adjust=yes, no rotation
S_SET-42_CNS__CNS_, M_SET-42_CNS__CNS_
** Constraint: CONSTRAINT-22-1
*Tie, name=CONSTRAINT-22-1, adjust=yes, no rotation
S_SET-46_CNS__CNS_, M_SET-46_CNS__CNS_
** Constraint: CONSTRAINT-23-1
*Tie, name=CONSTRAINT-23-1, adjust=yes, no rotation
S_SET-48_CNS__CNS_, M_SET-48_CNS__CNS_
** Constraint: CONSTRAINT-24-1
*Tie, name=CONSTRAINT-24-1, adjust=yes, no rotation
S_SET-50_CNS__CNS_, M_SET-50_CNS__CNS_
** Constraint: CONSTRAINT-25-1
*Tie, name=CONSTRAINT-25-1, adjust=yes, no rotation
S_SET-52_CNS__CNS_, M_SET-52_CNS__CNS_
** Constraint: CONSTRAINT-26-1
*Tie, name=CONSTRAINT-26-1, adjust=yes, no rotation
S_SET-54_CNS__CNS_, M_SET-54_CNS__CNS_
** Constraint: CONSTRAINT-27-1
*Tie, name=CONSTRAINT-27-1, adjust=yes, no rotation
S_SET-56_CNS__CNS_, M_SET-56_CNS__CNS_
** Constraint: CONSTRAINT-28-1
*Tie, name=CONSTRAINT-28-1, adjust=yes, no rotation
S_SET-58_CNS__CNS_, M_SET-58_CNS__CNS_
** Constraint: CONSTRAINT-29-1
*Tie, name=CONSTRAINT-29-1, adjust=yes, no rotation
** ... 61 like lines cut
*End Assembly
** 
** MATERIALS
** 
**  For the SupportBeam
*Material, name=ALUMINUM
*Density
2710.,
*Elastic
 7e+10, 0.346
**  For the Pier and the Floor
*Material, name=CONCRETE
*Density
2320.,
*Elastic
 2.5e+10, 0.3
**  For the RiverBank
*Material, name=GRANITE
*Density
2770.,
*Elastic
 6e+10, 0.27
**  For the Cable
*Material, name=STEEL
*Density
7860.,
*Elastic
 1.17e+11, 0.266
** ----------------------------------------------------------------
** 
** STEP: Step-1
** 
*Step, name=Step-1, nlgeom=NO
*Static
1., 1., 1e-05, 1.
** 
** BOUNDARY CONDITIONS
** 
** Name: Disp-BC-1 Type: Displacement/Rotation
*Boundary
SET-102, 1, 1
** Name: Disp-BC-2 Type: Displacement/Rotation
*Boundary
SET-102, 2, 2
** Name: Disp-BC-3 Type: Displacement/Rotation
*Boundary
SET-102, 3, 3
** 
** LOADS
** 
** Name: GRAVITY-1   Type: Gravity
*Dload
, GRAV, 10., 0., 0., -1.
** 
** OUTPUT REQUESTS
** 
*Restart, write, frequency=0
** 
** FIELD OUTPUT: F-Output-1
** 
*Output, field, variable=PRESELECT
** 
** HISTORY OUTPUT: H-Output-1
** 
*Output, history, variable=PRESELECT
*End Step
