*Heading
** Job name: Job-1 Model name: Model-1
** Generated by: Abaqus/CAE 6.14-1
*Preprint, echo=NO, model=NO, history=NO, contact=NO
**
** PARTS
**
*Part, name=Part-Cable50
*Node
      1,          50.,           0.,           0.
      2,           0.,         150.,           0.
*Element, type=T3D2
1, 1, 2
*Nset, nset=_PickedSet2, internal
 1, 2
*Elset, elset=_PickedSet2, internal
 1,
** Section: Section-Cable
*Solid Section, elset=_PickedSet2, material=Steel
0.25,
*End Part
**  
*Part, name=Part-Cable100
*Node
      1,         100.,           0.,           0.
      2,           0.,         150.,           0.
*Element, type=T3D2
1, 1, 2
*Nset, nset=_PickedSet2, internal
 1, 2
*Elset, elset=_PickedSet2, internal
 1,
** Section: Section-Cable
*Solid Section, elset=_PickedSet2, material=Steel
0.25,
*End Part
**  
*Part, name=Part-Cable150
*Node
      1,         150.,           0.,           0.
      2,           0.,         150.,           0.
*Element, type=T3D2
1, 1, 2
*Nset, nset=_PickedSet2, internal
 1, 2
*Elset, elset=_PickedSet2, internal
 1,
** Section: Section-Cable
*Solid Section, elset=_PickedSet2, material=Steel
0.25,
*End Part
**  
*Part, name=Part-Cable200
*Node
      1,         200.,           0.,           0.
      2,           0.,         150.,           0.
*Element, type=T3D2
1, 1, 2
*Nset, nset=_PickedSet2, internal
 1, 2
*Elset, elset=_PickedSet2, internal
 1,
** Section: Section-Cable
*Solid Section, elset=_PickedSet2, material=Steel
0.25,
*End Part
**  
*Part, name=Part-Cable250
*Node
      1,         250.,           0.,           0.
      2,           0.,         150.,           0.
*Element, type=T3D2
1, 1, 2
*Nset, nset=_PickedSet2, internal
 1, 2
*Elset, elset=_PickedSet2, internal
 1,
** Section: Section-Cable
*Solid Section, elset=_PickedSet2, material=Steel
0.25,
*End Part
**  
*Part, name=Part-Floor
*Node
      1,         200.,         -10.,           0.
      2,         200.,          10.,           0.
      3,         150.,          10.,           0.
      4,         150.,         -10.,           0.
      5,         100.,          10.,           0.
      6,         100.,         -10.,           0.
      7,          50.,          10.,           0.
      8,          50.,         -10.,           0.
      9,           0.,          10.,           0.
     10,           0.,         -10.,           0.
     11,         -50.,          10.,           0.
     12,         -50.,         -10.,           0.
     13,        -100.,          10.,           0.
     14,        -100.,         -10.,           0.
     15,        -150.,          10.,           0.
     16,        -150.,         -10.,           0.
     17,        -200.,          10.,           0.
     18,        -200.,         -10.,           0.
     19,        -250.,          10.,           0.
     20,        -250.,         -10.,           0.
** ... 485 like lines cut
*Element, type=S4R
 1,   1,  23, 236,  46
 2,  23,  24, 237, 236
 3,  24,  25, 238, 237
 4,  25,   2,  26, 238
 5,  46, 236, 239,  45
 6, 236, 237, 240, 239
 7, 237, 238, 241, 240
 8, 238,  26,  27, 241
 9,  45, 239, 242,  44
10, 239, 240, 243, 242
11, 240, 241, 244, 243
12, 241,  27,  28, 244
13,  44, 242, 245,  43
14, 242, 243, 246, 245
15, 243, 244, 247, 246
16, 244,  28,  29, 247
17,  43, 245, 248,  42
18, 245, 246, 249, 248
19, 246, 247, 250, 249
20, 247,  29,  30, 250
** ... 380 like lines cut
*Nset, nset=_PickedSet20, internal, generate
   1,  505,    1
*Elset, elset=_PickedSet20, internal, generate
   1,  400,    1
** Section: Section-Floor
*Shell Section, elset=_PickedSet20, material=Concrete
1., 5
*End Part
**  
*Part, name=Part-Pier
*Node
      1,           0.,      -133.75,           0.
      2,           0.,      -133.75,          10.
      3,         -20.,      -133.75,          10.
      4,         -20.,      -133.75,           0.
      5,           0.,        66.25,          10.
      6,         -10.,        66.25,          10.
      7,         -10.,        66.25,           0.
      8,           0.,        66.25,           0.
      9,          20.,      -133.75,           0.
     10,          20.,      -133.75,          10.
     11,          10.,        66.25,           0.
     12,          10.,        66.25,          10.
     13,           0.,      -133.75,           5.
     14,  -6.66666651,      -133.75,          10.
     15,   -13.333333,      -133.75,          10.
     16,         -20.,      -133.75,           5.
     17,   -13.333333,      -133.75,           0.
     18,  -6.66666651,      -133.75,           0.
     19,           0.,        66.25,           5.
     20,  -6.66666651,        66.25,          10.
** ... 841 like lines cut
*Element, type=C3D8R
  1, 102, 429, 706, 273,   1,  13, 269,  18
  2, 429, 142, 351, 706,  13,   2,  14, 269
  3, 273, 706, 707, 274,  18, 269, 270,  17
  4, 706, 351, 352, 707, 269,  14,  15, 270
  5, 274, 707, 468,  25,  17, 270,  16,   4
  6, 707, 352, 141, 468, 270,  15,   3,  16
  7, 101, 430, 708, 275, 102, 429, 706, 273
  8, 430, 143, 353, 708, 429, 142, 351, 706
  9, 275, 708, 709, 276, 273, 706, 707, 274
 10, 708, 353, 354, 709, 706, 351, 352, 707
 11, 276, 709, 469,  26, 274, 707, 468,  25
 12, 709, 354, 140, 469, 707, 352, 141, 468
 13, 100, 431, 710, 277, 101, 430, 708, 275
 14, 431, 144, 355, 710, 430, 143, 353, 708
 15, 277, 710, 711, 278, 275, 708, 709, 276
 16, 710, 355, 356, 711, 708, 353, 354, 709
 17, 278, 711, 470,  27, 276, 709, 469,  26
 18, 711, 356, 139, 470, 709, 354, 140, 469
 19,  99, 432, 712, 279, 100, 431, 710, 277
 20, 432, 145, 357, 712, 431, 144, 355, 710
** ... 460 like lines cut
*Nset, nset=_PickedSet4, internal, generate
   1,  861,    1
*Elset, elset=_PickedSet4, internal, generate
   1,  480,    1
** Section: Section-Pier
*Solid Section, elset=_PickedSet4, material=Concrete
,
*End Part
**  
*Part, name=Part-RiverBank
*Node
      1,           0.,          10.,          20.
      2,           0.,         -10.,          20.
      3,           0.,         -10.,          50.
      4,           0.,          10.,          50.
      5,          50.,         -10.,          20.
      6,          50.,         -10.,          50.
      7,          50.,          10.,          50.
      8,          50.,          10.,          20.
      9,           0.,          10.,           0.
     10,           0.,         -10.,           0.
     11,          50.,          10.,           0.
     12,          50.,         -10.,           0.
     13,           0.,           5.,          20.
     14,           0.,           0.,          20.
     15,           0.,          -5.,          20.
     16,           0.,         -10.,          25.
     17,           0.,         -10.,          30.
     18,           0.,         -10.,          35.
     19,           0.,         -10.,          40.
     20,           0.,         -10.,          45.
** ... 585 like lines cut
*Element, type=C3D8R
  1,  62, 237, 390, 147,   1,  13, 117,  28
  2, 237, 238, 391, 390,  13,  14, 118, 117
  3, 238, 239, 392, 391,  14,  15, 119, 118
  4, 239,  72, 192, 392,  15,   2,  16, 119
  5, 147, 390, 393, 148,  28, 117, 120,  27
  6, 390, 391, 394, 393, 117, 118, 121, 120
  7, 391, 392, 395, 394, 118, 119, 122, 121
  8, 392, 192, 193, 395, 119,  16,  17, 122
  9, 148, 393, 396, 149,  27, 120, 123,  26
 10, 393, 394, 397, 396, 120, 121, 124, 123
 11, 394, 395, 398, 397, 121, 122, 125, 124
 12, 395, 193, 194, 398, 122,  17,  18, 125
 13, 149, 396, 399, 150,  26, 123, 126,  25
 14, 396, 397, 400, 399, 123, 124, 127, 126
 15, 397, 398, 401, 400, 124, 125, 128, 127
 16, 398, 194, 195, 401, 125,  18,  19, 128
 17, 150, 399, 402, 151,  25, 126, 129,  24
 18, 399, 400, 403, 402, 126, 127, 130, 129
 19, 400, 401, 404, 403, 127, 128, 131, 130
 20, 401, 195, 196, 404, 128,  19,  20, 131
** ... 380 like lines cut
*Nset, nset=_PickedSet2, internal, generate
   1,  605,    1
*Elset, elset=_PickedSet2, internal, generate
   1,  400,    1
** Section: Section-RiverBank
*Solid Section, elset=_PickedSet2, material=Granite
,
*End Part
**  
*Part, name=Part-SupportBeam
*Node
      1,        -200.,           0.,           0.
      2,        -250.,           0.,           0.
      3,        -200.,          30.,           0.
      4,        -150.,           0.,           0.
      5,        -150.,          30.,           0.
      6,        -100.,          30.,           0.
      7,         -50.,           0.,           0.
      8,         -50.,          30.,           0.
      9,        -100.,           0.,           0.
     10,           0.,          30.,           0.
     11,          50.,           0.,           0.
     12,           0.,           0.,           0.
     13,         100.,           0.,           0.
     14,         100.,          30.,           0.
     15,         150.,           0.,           0.
     16,          50.,          30.,           0.
     17,         200.,           0.,           0.
     18,         200.,          30.,           0.
     19,         250.,           0.,           0.
     20,         150.,          30.,           0.
** ... 323 like lines cut
*Element, type=B31
 1,  1, 21
 2, 21, 22
 3, 22, 23
 4, 23, 24
 5, 24, 25
 6, 25, 26
 7, 26, 27
 8, 27, 28
 9, 28, 29
10, 29, 30
11, 30, 31
12, 31, 32
13, 32,  2
14,  3, 33
15, 33, 34
16, 34, 35
17, 35, 36
18, 36, 37
19, 37, 38
20, 38, 39
** ... 332 like lines cut
*Nset, nset=_PickedSet2, internal, generate
   1,  343,    1
*Elset, elset=_PickedSet2, internal, generate
   1,  352,    1
** Section: Section-SupportBeam  Profile: Profile-SupportBeam
*Beam Section, elset=_PickedSet2, material=Aluminum, temperature=GRADIENTS, section=BOX
2., 2., 0.1, 0.1, 0.1, 0.1
0.,0.,-1.
*End Part
**  
**
** ASSEMBLY
**
*Assembly, name=Assembly
**  
*Instance, name=Part-Floor-1, part=Part-Floor
*End Instance
**  
*Instance, name=Part-Pier-2, part=Part-Pier
          0.,         -10.,        83.75
          0.,         -10.,        83.75,           1.,         -10.,        83.75,          90.
*End Instance
**  
*Instance, name=Part-Pier-1, part=Part-Pier
          0.,          20.,        83.75
          0.,          20.,        83.75,           1.,          20.,        83.75,          90.
*End Instance
**  
*Instance, name=Part-RiverBank-1, part=Part-RiverBank
       -300.,           0.,         -50.
*End Instance
**  
*Instance, name=Part-RiverBank-2, part=Part-RiverBank
        250.,           0.,         -50.
*End Instance
**  
*Instance, name=Part-SupportBeam-1, part=Part-SupportBeam
          0.,         -10.,         -30.
          0.,         -10.,         -30.,           1.,         -10.,         -30.,          90.
*End Instance
**  
*Instance, name=Part-SupportBeam-2, part=Part-SupportBeam
          0.,          10.,         -30.
          0.,          10.,         -30.,           1.,          10.,         -30.,          90.
*End Instance
**  
*Instance, name=Part-Cable50-1, part=Part-Cable50
          0.,         -10.,           0.
          0.,         -10.,           0.,  4.32978055978831e-17, -9.29289318876822, 0.707106811231781,         180.
*End Instance
**  
*Instance, name=Part-Cable100-1, part=Part-Cable100
          0.,         -10.,           0.
          0.,         -10.,           0.,  4.32978055978831e-17, -9.29289318876822, 0.707106811231781,         180.
*End Instance
**  
*Instance, name=Part-Cable150-1, part=Part-Cable150
          0.,         -10.,           0.
          0.,         -10.,           0.,  4.32978055978831e-17, -9.29289318876822, 0.707106811231781,         180.
*End Instance
**  
*Instance, name=Part-Cable200-1, part=Part-Cable200
          0.,         -10.,           0.
          0.,         -10.,           0.,  4.32978055978831e-17, -9.29289318876822, 0.707106811231781,         180.
*End Instance
**  
*Instance, name=Part-Cable250-1, part=Part-Cable250
          0.,         -10.,           0.
          0.,         -10.,           0.,  4.32978055978831e-17, -9.29289318876822, 0.707106811231781,         180.
*End Instance
**  
*Instance, name=Part-Cable50-2, part=Part-Cable50
          0.,          10.,           0.
          0.,          10.,           0.,  4.32978055978831e-17, 10.7071068112318, 0.707106811231781,         180.
*End Instance
**  
*Instance, name=Part-Cable100-2, part=Part-Cable100
          0.,          10.,           0.
          0.,          10.,           0.,  4.32978055978831e-17, 10.7071068112318, 0.707106811231781,         180.
*End Instance
**  
*Instance, name=Part-Cable150-2, part=Part-Cable150
          0.,          10.,           0.
          0.,          10.,           0.,  4.32978055978831e-17, 10.7071068112318, 0.707106811231781,         180.
*End Instance
**  
*Instance, name=Part-Cable200-2, part=Part-Cable200
          0.,          10.,           0.
          0.,          10.,           0.,  4.32978055978831e-17, 10.7071068112318, 0.707106811231781,         180.
*End Instance
**  
*Instance, name=Part-Cable250-2, part=Part-Cable250
          0.,          10.,           0.
          0.,          10.,           0.,  4.32978055978831e-17, 10.7071068112318, 0.707106811231781,         180.
*End Instance
**  
*Instance, name=Part-Cable50-3, part=Part-Cable50
          0.,         -10.,           0.
          0.,         -10.,           0.,           1.,         -10.,           0.,          90.
*End Instance
**  
*Instance, name=Part-Cable100-3, part=Part-Cable100
          0.,         -10.,           0.
          0.,         -10.,           0.,           1.,         -10.,           0.,          90.
*End Instance
**  
*Instance, name=Part-Cable150-3, part=Part-Cable150
          0.,         -10.,           0.
          0.,         -10.,           0.,           1.,         -10.,           0.,          90.
*End Instance
**  
*Instance, name=Part-Cable200-3, part=Part-Cable200
          0.,         -10.,           0.
          0.,         -10.,           0.,           1.,         -10.,           0.,          90.
*End Instance
**  
*Instance, name=Part-Cable250-3, part=Part-Cable250
          0.,         -10.,           0.
          0.,         -10.,           0.,           1.,         -10.,           0.,          90.
*End Instance
**  
*Instance, name=Part-Cable50-4, part=Part-Cable50
          0.,          10.,           0.
          0.,          10.,           0.,           1.,          10.,           0.,          90.
*End Instance
**  
*Instance, name=Part-Cable100-4, part=Part-Cable100
          0.,          10.,           0.
          0.,          10.,           0.,           1.,          10.,           0.,          90.
*End Instance
**  
*Instance, name=Part-Cable150-4, part=Part-Cable150
          0.,          10.,           0.
          0.,          10.,           0.,           1.,          10.,           0.,          90.
*End Instance
**  
*Instance, name=Part-Cable200-4, part=Part-Cable200
          0.,          10.,           0.
          0.,          10.,           0.,           1.,          10.,           0.,          90.
*End Instance
**  
*Instance, name=Part-Cable250-4, part=Part-Cable250
          0.,          10.,           0.
          0.,          10.,           0.,           1.,          10.,           0.,          90.
*End Instance
**  
*Nset, nset=Set-102, instance=Part-Pier-2
   1,   2,   3,   4,   9,  10,  13,  14,  15,  16,  17,  18, 181, 182, 183, 184
 185, 269, 270, 507, 508
*Nset, nset=Set-102, instance=Part-Pier-1
   1,   2,   3,   4,   9,  10,  13,  14,  15,  16,  17,  18, 181, 182, 183, 184
 185, 269, 270, 507, 508
*Nset, nset=Set-102, instance=Part-RiverBank-2
   9,  10,  11,  12,  84,  85,  86,  93,  94,  95,  99, 100, 101, 102, 103, 104
 105, 106, 107, 108, 109, 110, 111, 112, 113, 114, 115, 116, 363, 364, 365, 366
 367, 368, 369, 370, 371, 372, 373, 374, 375, 376, 377, 378, 379, 380, 381, 382
 383, 384, 385, 386, 387, 388, 389
*Nset, nset=Set-102, instance=Part-RiverBank-1
   9,  10,  11,  12,  84,  85,  86,  93,  94,  95,  99, 100, 101, 102, 103, 104
 105, 106, 107, 108, 109, 110, 111, 112, 113, 114, 115, 116, 363, 364, 365, 366
 367, 368, 369, 370, 371, 372, 373, 374, 375, 376, 377, 378, 379, 380, 381, 382
 383, 384, 385, 386, 387, 388, 389
*Elset, elset=Set-102, instance=Part-Pier-2
   1,   2,   3,   4,   5,   6, 241, 242, 243, 244, 245, 246
*Elset, elset=Set-102, instance=Part-Pier-1
   1,   2,   3,   4,   5,   6, 241, 242, 243, 244, 245, 246
*Elset, elset=Set-102, instance=Part-RiverBank-2
 253, 254, 255, 256, 269, 270, 271, 272, 285, 286, 287, 288, 301, 302, 303, 304
 317, 318, 319, 320, 333, 334, 335, 336, 349, 350, 351, 352, 365, 366, 367, 368
 381, 382, 383, 384, 397, 398, 399, 400
*Elset, elset=Set-102, instance=Part-RiverBank-1
 253, 254, 255, 256, 269, 270, 271, 272, 285, 286, 287, 288, 301, 302, 303, 304
 317, 318, 319, 320, 333, 334, 335, 336, 349, 350, 351, 352, 365, 366, 367, 368
 381, 382, 383, 384, 397, 398, 399, 400
*Nset, nset=Set-CablesGroup1, instance=Part-Cable50-1
 1, 2
*Nset, nset=Set-CablesGroup1, instance=Part-Cable100-1
 1, 2
*Nset, nset=Set-CablesGroup1, instance=Part-Cable200-1
 1, 2
*Nset, nset=Set-CablesGroup1, instance=Part-Cable150-1
 1, 2
*Nset, nset=Set-CablesGroup1, instance=Part-Cable250-1
 1, 2
*Elset, elset=Set-CablesGroup1, instance=Part-Cable50-1
 1,
*Elset, elset=Set-CablesGroup1, instance=Part-Cable100-1
 1,
*Elset, elset=Set-CablesGroup1, instance=Part-Cable200-1
 1,
*Elset, elset=Set-CablesGroup1, instance=Part-Cable150-1
 1,
*Elset, elset=Set-CablesGroup1, instance=Part-Cable250-1
 1,
*Nset, nset=Set-CablesGroup2, instance=Part-Cable50-2
 1, 2
*Nset, nset=Set-CablesGroup2, instance=Part-Cable100-2
 1, 2
*Nset, nset=Set-CablesGroup2, instance=Part-Cable150-2
 1, 2
*Nset, nset=Set-CablesGroup2, instance=Part-Cable250-2
 1, 2
*Nset, nset=Set-CablesGroup2, instance=Part-Cable200-2
 1, 2
*Elset, elset=Set-CablesGroup2, instance=Part-Cable50-2
 1,
*Elset, elset=Set-CablesGroup2, instance=Part-Cable100-2
 1,
*Elset, elset=Set-CablesGroup2, instance=Part-Cable150-2
 1,
*Elset, elset=Set-CablesGroup2, instance=Part-Cable250-2
 1,
*Elset, elset=Set-CablesGroup2, instance=Part-Cable200-2
 1,
*Nset, nset=Set-CablesGroup3, instance=Part-Cable50-3
 1, 2
*Nset, nset=Set-CablesGroup3, instance=Part-Cable100-3
 1, 2
*Nset, nset=Set-CablesGroup3, instance=Part-Cable150-3
 1, 2
*Nset, nset=Set-CablesGroup3, instance=Part-Cable250-3
 1, 2
*Nset, nset=Set-CablesGroup3, instance=Part-Cable200-3
 1, 2
*Elset, elset=Set-CablesGroup3, instance=Part-Cable50-3
 1,
*Elset, elset=Set-CablesGroup3, instance=Part-Cable100-3
 1,
*Elset, elset=Set-CablesGroup3, instance=Part-Cable150-3
 1,
*Elset, elset=Set-CablesGroup3, instance=Part-Cable250-3
 1,
*Elset, elset=Set-CablesGroup3, instance=Part-Cable200-3
 1,
*Nset, nset=m_Set-6, instance=Part-Floor-1
 2,
*Nset, nset=m_Set-8, instance=Part-Floor-1
 3,
*Nset, nset=m_Set-10, instance=Part-Floor-1
 5,
*Nset, nset=m_Set-12, instance=Part-Floor-1
 22,
*Nset, nset=m_Set-13, instance=Part-Floor-1
 7,
*Nset, nset=m_Set-14, instance=Part-Floor-1
 21,
*Nset, nset=m_Set-16, instance=Part-Floor-1
 1,
*Nset, nset=m_Set-18, instance=Part-Floor-1
 4,
*Nset, nset=m_Set-20, instance=Part-Floor-1
 6,
*Nset, nset=m_Set-22, instance=Part-Floor-1
 8,
*Nset, nset=m_Set-24, instance=Part-Floor-1
 19,
*Nset, nset=m_Set-26, instance=Part-Floor-1
 17,
*Nset, nset=m_Set-28, instance=Part-Floor-1
 15,
*Nset, nset=m_Set-30, instance=Part-Floor-1
 13,
*Nset, nset=m_Set-32, instance=Part-Floor-1
 11,
*Nset, nset=m_Set-34, instance=Part-Floor-1
 20,
*Nset, nset=m_Set-36, instance=Part-Floor-1
 18,
*Nset, nset=m_Set-38, instance=Part-Floor-1
 16,
*Nset, nset=m_Set-40, instance=Part-Floor-1
 14,
*Nset, nset=m_Set-42, instance=Part-Floor-1
** ... 39 like lines cut
*Nset, nset=m_Set-82, instance=Part-RiverBank-2
 1,
*Nset, nset=m_Set-84, instance=Part-RiverBank-2
 2,
*Nset, nset=m_Set-86, instance=Part-RiverBank-1
 8,
*Nset, nset=m_Set-88, instance=Part-RiverBank-1
 5,
*Nset, nset=m_Set-90, instance=Part-RiverBank-2
  3,  4, 21, 22, 23
*Elset, elset=m_Set-90, instance=Part-RiverBank-2, generate
 21,  24,   1
*Nset, nset=m_Set-92, instance=Part-RiverBank-1
  6,  7, 37, 38, 39
*Elset, elset=m_Set-92, instance=Part-RiverBank-1, generate
 237,  240,    1
*Nset, nset=m_Set-94, instance=Part-Pier-2
 8,
*Nset, nset=m_Set-96, instance=Part-Pier-2
 8,
*Nset, nset=m_Set-98, instance=Part-Pier-1
 5,
*Nset, nset=m_Set-100, instance=Part-Pier-1
 5,
*Nset, nset=s_Set-6, instance=Part-Cable200-4
 1,
*Nset, nset=s_Set-8, instance=Part-Cable150-4
 1,
*Nset, nset=s_Set-10, instance=Part-Cable100-4
 1,
*Nset, nset=s_Set-12, instance=Part-Cable250-4
 1,
*Nset, nset=s_Set-13, instance=Part-Cable50-4
 1,
*Nset, nset=s_Set-14, instance=Part-Cable250-3
 1,
*Nset, nset=s_Set-16, instance=Part-Cable200-3
 1,
*Nset, nset=s_Set-18, instance=Part-Cable150-3
 1,
*Nset, nset=s_Set-20, instance=Part-Cable100-3
 1,
*Nset, nset=s_Set-22, instance=Part-Cable50-3
 1,
*Nset, nset=s_Set-24, instance=Part-Cable250-2
 1,
*Nset, nset=s_Set-26, instance=Part-Cable200-2
 1,
*Nset, nset=s_Set-28, instance=Part-Cable150-2
 1,
*Nset, nset=s_Set-30, instance=Part-Cable100-2
 1,
*Nset, nset=s_Set-32, instance=Part-Cable50-2
 1,
*Nset, nset=s_Set-34, instance=Part-Cable250-1
 1,
*Nset, nset=s_Set-36, instance=Part-Cable200-1
 1,
*Nset, nset=s_Set-38, instance=Part-Cable150-1
 1,
*Nset, nset=s_Set-40, instance=Part-Cable100-1
 1,
*Nset, nset=s_Set-42, instance=Part-Cable50-1
 1,
*Nset, nset=s_Set-44, instance=Part-SupportBeam-2
 18,
*Nset, nset=s_Set-46, instance=Part-SupportBeam-2
 18,
*Nset, nset=s_Set-48, instance=Part-SupportBeam-2
 20,
*Nset, nset=s_Set-50, instance=Part-SupportBeam-2
 14,
*Nset, nset=s_Set-52, instance=Part-SupportBeam-2
 16,
*Nset, nset=s_Set-54, instance=Part-SupportBeam-2
 10,
*Nset, nset=s_Set-56, instance=Part-SupportBeam-2
 8,
*Nset, nset=s_Set-58, instance=Part-SupportBeam-2
 6,
*Nset, nset=s_Set-60, instance=Part-SupportBeam-2
 5,
*Nset, nset=s_Set-62, instance=Part-SupportBeam-2
 3,
*Nset, nset=s_Set-64, instance=Part-SupportBeam-1
 18,
*Nset, nset=s_Set-66, instance=Part-SupportBeam-1
 20,
*Nset, nset=s_Set-68, instance=Part-SupportBeam-1
 14,
*Nset, nset=s_Set-70, instance=Part-SupportBeam-1
 16,
*Nset, nset=s_Set-72, instance=Part-SupportBeam-1
 10,
*Nset, nset=s_Set-74, instance=Part-SupportBeam-1
 8,
*Nset, nset=s_Set-76, instance=Part-SupportBeam-1
 6,
*Nset, nset=s_Set-78, instance=Part-SupportBeam-1
 5,
*Nset, nset=s_Set-80, instance=Part-SupportBeam-1
 3,
*Nset, nset=s_Set-82, instance=Part-SupportBeam-2
 19,
*Nset, nset=s_Set-84, instance=Part-SupportBeam-1
 19,
*Nset, nset=s_Set-86, instance=Part-SupportBeam-2
 2,
*Nset, nset=s_Set-88, instance=Part-SupportBeam-1
 2,
*Nset, nset=s_Set-90, instance=Part-Floor-1
  21,  22, 224, 225, 226
*Elset, elset=s_Set-90, instance=Part-Floor-1, generate
 397,  400,    1
*Nset, nset=s_Set-92, instance=Part-Floor-1
  19,  20, 203, 204, 205
*Elset, elset=s_Set-92, instance=Part-Floor-1, generate
 357,  360,    1
*Nset, nset=s_Set-94, instance=Part-Cable50-3
 2,
*Nset, nset=s_Set-94, instance=Part-Cable100-3
 2,
*Nset, nset=s_Set-94, instance=Part-Cable150-3
 2,
*Nset, nset=s_Set-94, instance=Part-Cable250-3
 2,
*Nset, nset=s_Set-94, instance=Part-Cable200-3
 2,
*Nset, nset=s_Set-96, instance=Part-Cable50-1
 2,
*Nset, nset=s_Set-96, instance=Part-Cable100-1
 2,
*Nset, nset=s_Set-96, instance=Part-Cable200-1
 2,
*Nset, nset=s_Set-96, instance=Part-Cable150-1
 2,
*Nset, nset=s_Set-96, instance=Part-Cable250-1
 2,
*Nset, nset=s_Set-98, instance=Part-Cable50-4
 2,
*Nset, nset=s_Set-98, instance=Part-Cable100-4
 2,
*Nset, nset=s_Set-98, instance=Part-Cable200-4
 2,
*Nset, nset=s_Set-98, instance=Part-Cable150-4
 2,
*Nset, nset=s_Set-98, instance=Part-Cable250-4
 2,
*Nset, nset=s_Set-100, instance=Part-Cable50-2
 2,
*Nset, nset=s_Set-100, instance=Part-Cable100-2
 2,
*Nset, nset=s_Set-100, instance=Part-Cable150-2
 2,
*Nset, nset=s_Set-100, instance=Part-Cable250-2
 2,
*Nset, nset=s_Set-100, instance=Part-Cable200-2
 2,
*Surface, type=NODE, name=m_Set-6_CNS_, internal
m_Set-6, 1.
*Surface, type=NODE, name=s_Set-6_CNS_, internal
s_Set-6, 1.
*Surface, type=NODE, name=m_Set-8_CNS_, internal
m_Set-8, 1.
*Surface, type=NODE, name=s_Set-8_CNS_, internal
s_Set-8, 1.
*Surface, type=NODE, name=m_Set-10_CNS_, internal
m_Set-10, 1.
*Surface, type=NODE, name=s_Set-10_CNS_, internal
s_Set-10, 1.
*Surface, type=NODE, name=m_Set-12_CNS_, internal
m_Set-12, 1.
*Surface, type=NODE, name=s_Set-12_CNS_, internal
s_Set-12, 1.
*Surface, type=NODE, name=m_Set-13_CNS_, internal
m_Set-13, 1.
*Surface, type=NODE, name=s_Set-13_CNS_, internal
s_Set-13, 1.
*Surface, type=NODE, name=m_Set-14_CNS_, internal
m_Set-14, 1.
*Surface, type=NODE, name=s_Set-14_CNS_, internal
s_Set-14, 1.
*Surface, type=NODE, name=m_Set-16_CNS_, internal
m_Set-16, 1.
*Surface, type=NODE, name=s_Set-16_CNS_, internal
s_Set-16, 1.
*Surface, type=NODE, name=m_Set-18_CNS_, internal
m_Set-18, 1.
*Surface, type=NODE, name=s_Set-18_CNS_, internal
s_Set-18, 1.
*Surface, type=NODE, name=m_Set-20_CNS_, internal
m_Set-20, 1.
*Surface, type=NODE, name=s_Set-20_CNS_, internal
s_Set-20, 1.
*Surface, type=NODE, name=m_Set-22_CNS_, internal
m_Set-22, 1.
*Surface, type=NODE, name=s_Set-22_CNS_, internal
s_Set-22, 1.
*Surface, type=NODE, name=m_Set-24_CNS_, internal
m_Set-24, 1.
*Surface, type=NODE, name=s_Set-24_CNS_, internal
s_Set-24, 1.
*Surface, type=NODE, name=m_Set-26_CNS_, internal
m_Set-26, 1.
*Surface, type=NODE, name=s_Set-26_CNS_, internal
s_Set-26, 1.
*Surface, type=NODE, name=m_Set-28_CNS_, internal
m_Set-28, 1.
*Surface, type=NODE, name=s_Set-28_CNS_, internal
s_Set-28, 1.
*Surface, type=NODE, name=m_Set-30_CNS_, internal
m_Set-30, 1.
*Surface, type=NODE, name=s_Set-30_CNS_, internal
s_Set-30, 1.
*Surface, type=NODE, name=m_Set-32_CNS_, internal
m_Set-32, 1.
*Surface, type=NODE, name=s_Set-32_CNS_, internal
s_Set-32, 1.
*Surface, type=NODE, name=m_Set-34_CNS_, internal
m_Set-34, 1.
*Surface, type=NODE, name=s_Set-34_CNS_, internal
s_Set-34, 1.
*Surface, type=NODE, name=m_Set-36_CNS_, internal
m_Set-36, 1.
*Surface, type=NODE, name=s_Set-36_CNS_, internal
s_Set-36, 1.
*Surface, type=NODE, name=m_Set-38_CNS_, internal
m_Set-38, 1.
*Surface, type=NODE, name=s_Set-38_CNS_, internal
s_Set-38, 1.
*Surface, type=NODE, name=m_Set-40_CNS_, internal
m_Set-40, 1.
*Surface, type=NODE, name=s_Set-40_CNS_, internal
s_Set-40, 1.
*Surface, type=NODE, name=m_Set-42_CNS_, internal
m_Set-42, 1.
*Surface, type=NODE, name=s_Set-42_CNS_, internal
s_Set-42, 1.
*Surface, type=NODE, name=m_Set-46_CNS_, internal
m_Set-46, 1.
*Surface, type=NODE, name=s_Set-46_CNS_, internal
s_Set-46, 1.
*Surface, type=NODE, name=m_Set-48_CNS_, internal
m_Set-48, 1.
*Surface, type=NODE, name=s_Set-48_CNS_, internal
s_Set-48, 1.
*Surface, type=NODE, name=m_Set-50_CNS_, internal
m_Set-50, 1.
*Surface, type=NODE, name=s_Set-50_CNS_, internal
s_Set-50, 1.
*Surface, type=NODE, name=m_Set-52_CNS_, internal
m_Set-52, 1.
*Surface, type=NODE, name=s_Set-52_CNS_, internal
s_Set-52, 1.
*Surface, type=NODE, name=m_Set-54_CNS_, internal
m_Set-54, 1.
*Surface, type=NODE, name=s_Set-54_CNS_, internal
s_Set-54, 1.
*Surface, type=NODE, name=m_Set-56_CNS_, internal
m_Set-56, 1.
*Surface, type=NODE, name=s_Set-56_CNS_, internal
s_Set-56, 1.
*Surface, type=NODE, name=m_Set-58_CNS_, internal
m_Set-58, 1.
*Surface, type=NODE, name=s_Set-58_CNS_, internal
s_Set-58, 1.
*Surface, type=NODE, name=m_Set-60_CNS_, internal
m_Set-60, 1.
*Surface, type=NODE, name=s_Set-60_CNS_, internal
s_Set-60, 1.
*Surface, type=NODE, name=m_Set-62_CNS_, internal
m_Set-62, 1.
*Surface, type=NODE, name=s_Set-62_CNS_, internal
s_Set-62, 1.
*Surface, type=NODE, name=m_Set-64_CNS_, internal
m_Set-64, 1.
*Surface, type=NODE, name=s_Set-64_CNS_, internal
s_Set-64, 1.
*Surface, type=NODE, name=m_Set-66_CNS_, internal
m_Set-66, 1.
*Surface, type=NODE, name=s_Set-66_CNS_, internal
s_Set-66, 1.
*Surface, type=NODE, name=m_Set-68_CNS_, internal
m_Set-68, 1.
*Surface, type=NODE, name=s_Set-68_CNS_, internal
s_Set-68, 1.
*Surface, type=NODE, name=m_Set-70_CNS_, internal
m_Set-70, 1.
*Surface, type=NODE, name=s_Set-70_CNS_, internal
s_Set-70, 1.
*Surface, type=NODE, name=m_Set-72_CNS_, internal
m_Set-72, 1.
*Surface, type=NODE, name=s_Set-72_CNS_, internal
s_Set-72, 1.
*Surface, type=NODE, name=m_Set-74_CNS_, internal
m_Set-74, 1.
*Surface, type=NODE, name=s_Set-74_CNS_, internal
s_Set-74, 1.
*Surface, type=NODE, name=m_Set-76_CNS_, internal
m_Set-76, 1.
*Surface, type=NODE, name=s_Set-76_CNS_, internal
s_Set-76, 1.
*Surface, type=NODE, name=m_Set-78_CNS_, internal
m_Set-78, 1.
*Surface, type=NODE, name=s_Set-78_CNS_, internal
s_Set-78, 1.
*Surface, type=NODE, name=m_Set-80_CNS_, internal
m_Set-80, 1.
*Surface, type=NODE, name=s_Set-80_CNS_, internal
s_Set-80, 1.
*Surface, type=NODE, name=m_Set-82_CNS_, internal
m_Set-82, 1.
*Surface, type=NODE, name=s_Set-82_CNS_, internal
s_Set-82, 1.
*Surface, type=NODE, name=m_Set-84_CNS_, internal
m_Set-84, 1.
*Surface, type=NODE, name=s_Set-84_CNS_, internal
s_Set-84, 1.
*Surface, type=NODE, name=m_Set-86_CNS_, internal
m_Set-86, 1.
*Surface, type=NODE, name=s_Set-86_CNS_, internal
s_Set-86, 1.
*Surface, type=NODE, name=m_Set-88_CNS_, internal
m_Set-88, 1.
*Surface, type=NODE, name=s_Set-88_CNS_, internal
s_Set-88, 1.
*Surface, type=NODE, name=m_Set-90_CNS_, internal
m_Set-90, 1.
*Surface, type=NODE, name=s_Set-90_CNS_, internal
s_Set-90, 1.
*Surface, type=NODE, name=m_Set-92_CNS_, internal
m_Set-92, 1.
*Surface, type=NODE, name=s_Set-92_CNS_, internal
s_Set-92, 1.
*Surface, type=NODE, name=m_Set-94_CNS_, internal
m_Set-94, 1.
*Surface, type=NODE, name=s_Set-94_CNS_, internal
s_Set-94, 1.
*Surface, type=NODE, name=m_Set-96_CNS_, internal
m_Set-96, 1.
*Surface, type=NODE, name=s_Set-96_CNS_, internal
s_Set-96, 1.
*Surface, type=NODE, name=m_Set-98_CNS_, internal
m_Set-98, 1.
*Surface, type=NODE, name=s_Set-98_CNS_, internal
s_Set-98, 1.
*Surface, type=NODE, name=m_Set-100_CNS_, internal
m_Set-100, 1.
*Surface, type=NODE, name=s_Set-100_CNS_, internal
s_Set-100, 1.
** Constraint: Constraint-2
*Tie, name=Constraint-2, adjust=yes, no rotation
s_Set-6_CNS_, m_Set-6_CNS_
** Constraint: Constraint-3
*Tie, name=Constraint-3, adjust=yes, no rotation
s_Set-8_CNS_, m_Set-8_CNS_
** Constraint: Constraint-4
*Tie, name=Constraint-4, adjust=yes, no rotation
s_Set-10_CNS_, m_Set-10_CNS_
** Constraint: Constraint-5
*Tie, name=Constraint-5, adjust=yes, no rotation
s_Set-12_CNS_, m_Set-12_CNS_
** Constraint: Constraint-6
*Tie, name=Constraint-6, adjust=yes, no rotation
s_Set-13_CNS_, m_Set-13_CNS_
** Constraint: Constraint-7
*Tie, name=Constraint-7, adjust=yes
s_Set-14_CNS_, m_Set-14_CNS_
** Constraint: Constraint-8
*Tie, name=Constraint-8, adjust=yes
s_Set-16_CNS_, m_Set-16_CNS_
** Constraint: Constraint-9
*Tie, name=Constraint-9, adjust=no
s_Set-18_CNS_, m_Set-18_CNS_
** Constraint: Constraint-10
*Tie, name=Constraint-10, adjust=yes, no rotation
s_Set-20_CNS_, m_Set-20_CNS_
** Constraint: Constraint-11
*Tie, name=Constraint-11, adjust=yes, no rotation
s_Set-22_CNS_, m_Set-22_CNS_
** Constraint: Constraint-12
*Tie, name=Constraint-12, adjust=yes, no rotation
s_Set-24_CNS_, m_Set-24_CNS_
** Constraint: Constraint-13
*Tie, name=Constraint-13, adjust=yes, no rotation
s_Set-26_CNS_, m_Set-26_CNS_
** Constraint: Constraint-14
*Tie, name=Constraint-14, adjust=yes, no rotation
s_Set-28_CNS_, m_Set-28_CNS_
** Constraint: Constraint-15
*Tie, name=Constraint-15, adjust=yes, no rotation
s_Set-30_CNS_, m_Set-30_CNS_
** Constraint: Constraint-16
*Tie, name=Constraint-16, adjust=yes, no rotation
s_Set-32_CNS_, m_Set-32_CNS_
** Constraint: Constraint-17
*Tie, name=Constraint-17, adjust=yes, no rotation
s_Set-34_CNS_, m_Set-34_CNS_
** Constraint: Constraint-18
*Tie, name=Constraint-18, adjust=yes, no rotation
s_Set-36_CNS_, m_Set-36_CNS_
** Constraint: Constraint-19
*Tie, name=Constraint-19, adjust=yes, no rotation
s_Set-38_CNS_, m_Set-38_CNS_
** Constraint: Constraint-20
*Tie, name=Constraint-20, adjust=yes, no rotation
s_Set-40_CNS_, m_Set-40_CNS_
** Constraint: Constraint-21
*Tie, name=Constraint-21, adjust=yes, no rotation
s_Set-42_CNS_, m_Set-42_CNS_
** Constraint: Constraint-22
*Tie, name=Constraint-22, adjust=yes, no rotation
s_Set-46_CNS_, m_Set-46_CNS_
** Constraint: Constraint-23
*Tie, name=Constraint-23, adjust=yes, no rotation
s_Set-48_CNS_, m_Set-48_CNS_
** Constraint: Constraint-24
*Tie, name=Constraint-24, adjust=yes, no rotation
s_Set-50_CNS_, m_Set-50_CNS_
** Constraint: Constraint-25
*Tie, name=Constraint-25, adjust=yes, no rotation
s_Set-52_CNS_, m_Set-52_CNS_
** Constraint: Constraint-26
*Tie, name=Constraint-26, adjust=yes, no rotation
s_Set-54_CNS_, m_Set-54_CNS_
** Constraint: Constraint-27
*Tie, name=Constraint-27, adjust=yes, no rotation
s_Set-56_CNS_, m_Set-56_CNS_
** Constraint: Constraint-28
*Tie, name=Constraint-28, adjust=yes, no rotation
s_Set-58_CNS_, m_Set-58_CNS_
** Constraint: Constraint-29
*Tie, name=Constraint-29, adjust=yes, no rotation
** ... 61 like lines cut
*End Assembly
** 
** MATERIALS
** 
** For the SupportBeam
*Material, name=Aluminum
*Density
2710.,
*Elastic
 7e+10, 0.346
** For the Pier and the Floor
*Material, name=Concrete
*Density
2320.,
*Elastic
 2.5e+10, 0.3
** For the RiverBank
*Material, name=Granite
*Density
2770.,
*Elastic
 6e+10, 0.27
** For the Cable
*Material, name=Steel
*Density
7860.,
*Elastic
 1.17e+11, 0.266
** ----------------------------------------------------------------
** 
** STEP: Step-1
** 
*Step, name=Step-1, nlgeom=NO
*Static
1., 1., 1e-05, 1.
** 
** BOUNDARY CONDITIONS
** 
** Name: BC-1 Type: Displacement/Rotation
*Boundary
Set-102, 1, 1
Set-102, 2, 2
Set-102, 3, 3
** 
** LOADS
** 
** Name: Load-1   Type: Gravity
*Dload
, GRAV, 10., 0., 0., -1.
** 
** OUTPUT REQUESTS
** 
*Restart, write, frequency=0
** 
** FIELD OUTPUT: F-Output-1
** 
*Output, field, variable=PRESELECT
** 
** HISTORY OUTPUT: H-Output-1
** 
*Output, history, variable=PRESELECT
*End Step
