*Heading
** Job name: Job-1 Model name: Model-1
** Generated by: Abaqus/CAE 6.14-1
*Preprint, echo=NO, model=NO, history=NO, contact=NO
** ----------------------------------------------------------------
** 
** PART INSTANCE: Part-Floor-1
** 
*Node
      1,         200.,         -10.,           0.
      2,         200.,          10.,           0.
      3,         150.,          10.,           0.
      4,         150.,         -10.,           0.
      5,         100.,          10.,           0.
      6,         100.,         -10.,           0.
      7,          50.,          10.,           0.
      8,          50.,         -10.,           0.
      9,           0.,          10.,           0.
     10,           0.,         -10.,           0.
     11,         -50.,          10.,           0.
     12,         -50.,         -10.,           0.
     13,        -100.,          10.,           0.
     14,        -100.,         -10.,           0.
     15,        -150.,          10.,           0.
     16,        -150.,         -10.,           0.
     17,        -200.,          10.,           0.
     18,        -200.,         -10.,           0.
     19,        -250.,          10.,           0.
     20,        -250.,         -10.,           0.
** ... 485 like lines cut
*Element, type=S4R
 1,   1,  23, 236,  46
 2,  23,  24, 237, 236
 3,  24,  25, 238, 237
 4,  25,   2,  26, 238
 5,  46, 236, 239,  45
 6, 236, 237, 240, 239
 7, 237, 238, 241, 240
 8, 238,  26,  27, 241
 9,  45, 239, 242,  44
10, 239, 240, 243, 242
11, 240, 241, 244, 243
12, 241,  27,  28, 244
13,  44, 242, 245,  43
14, 242, 243, 246, 245
15, 243, 244, 247, 246
16, 244,  28,  29, 247
17,  43, 245, 248,  42
18, 245, 246, 249, 248
19, 246, 247, 250, 249
20, 247,  29,  30, 250
** ... 380 like lines cut
*Nset, nset=Part-Floor-1__PickedSet20, generate
   1,  505,    1
*Elset, elset=Part-Floor-1__PickedSet20, generate
   1,  400,    1
** Section: Section-Floor
*Shell Section, elset=Part-Floor-1__PickedSet20, material=Concrete
1., 5
** ----------------------------------------------------------------
** 
** PART INSTANCE: Part-Pier-2
** 
*System
          0.,        -10.,       83.75,          1.,        -10.,       83.75
          0.,        -10.,       84.75
*Node
    506,           0.,      -133.75,           0.
    507,           0.,      -133.75,          10.
    508,         -20.,      -133.75,          10.
    509,         -20.,      -133.75,           0.
    510,           0.,        66.25,          10.
    511,         -10.,        66.25,          10.
    512,         -10.,        66.25,           0.
    513,           0.,        66.25,           0.
    514,          20.,      -133.75,           0.
    515,          20.,      -133.75,          10.
    516,          10.,        66.25,           0.
    517,          10.,        66.25,          10.
    518,           0.,      -133.75,           5.
    519,  -6.66666651,      -133.75,          10.
    520,   -13.333333,      -133.75,          10.
    521,         -20.,      -133.75,           5.
    522,   -13.333333,      -133.75,           0.
    523,  -6.66666651,      -133.75,           0.
    524,           0.,        66.25,           5.
    525,  -6.66666651,        66.25,          10.
** ... 841 like lines cut
*Element, type=C3D8R
401,  607,  934, 1211,  778,  506,  518,  774,  523
402,  934,  647,  856, 1211,  518,  507,  519,  774
403,  778, 1211, 1212,  779,  523,  774,  775,  522
404, 1211,  856,  857, 1212,  774,  519,  520,  775
405,  779, 1212,  973,  530,  522,  775,  521,  509
406, 1212,  857,  646,  973,  775,  520,  508,  521
407,  606,  935, 1213,  780,  607,  934, 1211,  778
408,  935,  648,  858, 1213,  934,  647,  856, 1211
409,  780, 1213, 1214,  781,  778, 1211, 1212,  779
410, 1213,  858,  859, 1214, 1211,  856,  857, 1212
411,  781, 1214,  974,  531,  779, 1212,  973,  530
412, 1214,  859,  645,  974, 1212,  857,  646,  973
413,  605,  936, 1215,  782,  606,  935, 1213,  780
414,  936,  649,  860, 1215,  935,  648,  858, 1213
415,  782, 1215, 1216,  783,  780, 1213, 1214,  781
416, 1215,  860,  861, 1216, 1213,  858,  859, 1214
417,  783, 1216,  975,  532,  781, 1214,  974,  531
418, 1216,  861,  644,  975, 1214,  859,  645,  974
419,  604,  937, 1217,  784,  605,  936, 1215,  782
420,  937,  650,  862, 1217,  936,  649,  860, 1215
** ... 460 like lines cut
*Nset, nset=Part-Pier-2__PickedSet4, generate
 506, 1366,    1
*Elset, elset=Part-Pier-2__PickedSet4, generate
 401,  880,    1
** Section: Section-Pier
*Solid Section, elset=Part-Pier-2__PickedSet4, material=Concrete
,
** ----------------------------------------------------------------
** 
** PART INSTANCE: Part-Pier-1
** 
*System
          0.,         20.,       83.75,          1.,         20.,       83.75
          0.,         20.,       84.75
*Node
   1367,           0.,      -133.75,           0.
   1368,           0.,      -133.75,          10.
   1369,         -20.,      -133.75,          10.
   1370,         -20.,      -133.75,           0.
   1371,           0.,        66.25,          10.
   1372,         -10.,        66.25,          10.
   1373,         -10.,        66.25,           0.
   1374,           0.,        66.25,           0.
   1375,          20.,      -133.75,           0.
   1376,          20.,      -133.75,          10.
   1377,          10.,        66.25,           0.
   1378,          10.,        66.25,          10.
   1379,           0.,      -133.75,           5.
   1380,  -6.66666651,      -133.75,          10.
   1381,   -13.333333,      -133.75,          10.
   1382,         -20.,      -133.75,           5.
   1383,   -13.333333,      -133.75,           0.
   1384,  -6.66666651,      -133.75,           0.
   1385,           0.,        66.25,           5.
   1386,  -6.66666651,        66.25,          10.
** ... 841 like lines cut
*Element, type=C3D8R
 881, 1468, 1795, 2072, 1639, 1367, 1379, 1635, 1384
 882, 1795, 1508, 1717, 2072, 1379, 1368, 1380, 1635
 883, 1639, 2072, 2073, 1640, 1384, 1635, 1636, 1383
 884, 2072, 1717, 1718, 2073, 1635, 1380, 1381, 1636
 885, 1640, 2073, 1834, 1391, 1383, 1636, 1382, 1370
 886, 2073, 1718, 1507, 1834, 1636, 1381, 1369, 1382
 887, 1467, 1796, 2074, 1641, 1468, 1795, 2072, 1639
 888, 1796, 1509, 1719, 2074, 1795, 1508, 1717, 2072
 889, 1641, 2074, 2075, 1642, 1639, 2072, 2073, 1640
 890, 2074, 1719, 1720, 2075, 2072, 1717, 1718, 2073
 891, 1642, 2075, 1835, 1392, 1640, 2073, 1834, 1391
 892, 2075, 1720, 1506, 1835, 2073, 1718, 1507, 1834
 893, 1466, 1797, 2076, 1643, 1467, 1796, 2074, 1641
 894, 1797, 1510, 1721, 2076, 1796, 1509, 1719, 2074
 895, 1643, 2076, 2077, 1644, 1641, 2074, 2075, 1642
 896, 2076, 1721, 1722, 2077, 2074, 1719, 1720, 2075
 897, 1644, 2077, 1836, 1393, 1642, 2075, 1835, 1392
 898, 2077, 1722, 1505, 1836, 2075, 1720, 1506, 1835
 899, 1465, 1798, 2078, 1645, 1466, 1797, 2076, 1643
 900, 1798, 1511, 1723, 2078, 1797, 1510, 1721, 2076
** ... 460 like lines cut
*Nset, nset=Part-Pier-1__PickedSet4, generate
1367, 2227,    1
*Elset, elset=Part-Pier-1__PickedSet4, generate
 881, 1360,    1
** Section: Section-Pier
*Solid Section, elset=Part-Pier-1__PickedSet4, material=Concrete
,
** ----------------------------------------------------------------
** 
** PART INSTANCE: Part-RiverBank-1
** 
*System
       -300.,          0.,        -50.,       -299.,          0.,        -50.
*Node
   2228,           0.,          10.,          20.
   2229,           0.,         -10.,          20.
   2230,           0.,         -10.,          50.
   2231,           0.,          10.,          50.
   2232,          50.,         -10.,          20.
   2233,          50.,         -10.,          50.
   2234,          50.,          10.,          50.
   2235,          50.,          10.,          20.
   2236,           0.,          10.,           0.
   2237,           0.,         -10.,           0.
   2238,          50.,          10.,           0.
   2239,          50.,         -10.,           0.
   2240,           0.,           5.,          20.
   2241,           0.,           0.,          20.
   2242,           0.,          -5.,          20.
   2243,           0.,         -10.,          25.
   2244,           0.,         -10.,          30.
   2245,           0.,         -10.,          35.
   2246,           0.,         -10.,          40.
   2247,           0.,         -10.,          45.
** ... 585 like lines cut
*Element, type=C3D8R
1361, 2289, 2464, 2617, 2374, 2228, 2240, 2344, 2255
1362, 2464, 2465, 2618, 2617, 2240, 2241, 2345, 2344
1363, 2465, 2466, 2619, 2618, 2241, 2242, 2346, 2345
1364, 2466, 2299, 2419, 2619, 2242, 2229, 2243, 2346
1365, 2374, 2617, 2620, 2375, 2255, 2344, 2347, 2254
1366, 2617, 2618, 2621, 2620, 2344, 2345, 2348, 2347
1367, 2618, 2619, 2622, 2621, 2345, 2346, 2349, 2348
1368, 2619, 2419, 2420, 2622, 2346, 2243, 2244, 2349
1369, 2375, 2620, 2623, 2376, 2254, 2347, 2350, 2253
1370, 2620, 2621, 2624, 2623, 2347, 2348, 2351, 2350
1371, 2621, 2622, 2625, 2624, 2348, 2349, 2352, 2351
1372, 2622, 2420, 2421, 2625, 2349, 2244, 2245, 2352
1373, 2376, 2623, 2626, 2377, 2253, 2350, 2353, 2252
1374, 2623, 2624, 2627, 2626, 2350, 2351, 2354, 2353
1375, 2624, 2625, 2628, 2627, 2351, 2352, 2355, 2354
1376, 2625, 2421, 2422, 2628, 2352, 2245, 2246, 2355
1377, 2377, 2626, 2629, 2378, 2252, 2353, 2356, 2251
1378, 2626, 2627, 2630, 2629, 2353, 2354, 2357, 2356
1379, 2627, 2628, 2631, 2630, 2354, 2355, 2358, 2357
1380, 2628, 2422, 2423, 2631, 2355, 2246, 2247, 2358
** ... 380 like lines cut
*Nset, nset=Part-RiverBank-1__PickedSet2, generate
2228, 2832,    1
*Elset, elset=Part-RiverBank-1__PickedSet2, generate
1361, 1760,    1
** Section: Section-RiverBank
*Solid Section, elset=Part-RiverBank-1__PickedSet2, material=Granite
,
** ----------------------------------------------------------------
** 
** PART INSTANCE: Part-RiverBank-2
** 
*System
        250.,          0.,        -50.,        251.,          0.,        -50.
*Node
   2833,           0.,          10.,          20.
   2834,           0.,         -10.,          20.
   2835,           0.,         -10.,          50.
   2836,           0.,          10.,          50.
   2837,          50.,         -10.,          20.
   2838,          50.,         -10.,          50.
   2839,          50.,          10.,          50.
   2840,          50.,          10.,          20.
   2841,           0.,          10.,           0.
   2842,           0.,         -10.,           0.
   2843,          50.,          10.,           0.
   2844,          50.,         -10.,           0.
   2845,           0.,           5.,          20.
   2846,           0.,           0.,          20.
   2847,           0.,          -5.,          20.
   2848,           0.,         -10.,          25.
   2849,           0.,         -10.,          30.
   2850,           0.,         -10.,          35.
   2851,           0.,         -10.,          40.
   2852,           0.,         -10.,          45.
** ... 585 like lines cut
*Element, type=C3D8R
1761, 2894, 3069, 3222, 2979, 2833, 2845, 2949, 2860
1762, 3069, 3070, 3223, 3222, 2845, 2846, 2950, 2949
1763, 3070, 3071, 3224, 3223, 2846, 2847, 2951, 2950
1764, 3071, 2904, 3024, 3224, 2847, 2834, 2848, 2951
1765, 2979, 3222, 3225, 2980, 2860, 2949, 2952, 2859
1766, 3222, 3223, 3226, 3225, 2949, 2950, 2953, 2952
1767, 3223, 3224, 3227, 3226, 2950, 2951, 2954, 2953
1768, 3224, 3024, 3025, 3227, 2951, 2848, 2849, 2954
1769, 2980, 3225, 3228, 2981, 2859, 2952, 2955, 2858
1770, 3225, 3226, 3229, 3228, 2952, 2953, 2956, 2955
1771, 3226, 3227, 3230, 3229, 2953, 2954, 2957, 2956
1772, 3227, 3025, 3026, 3230, 2954, 2849, 2850, 2957
1773, 2981, 3228, 3231, 2982, 2858, 2955, 2958, 2857
1774, 3228, 3229, 3232, 3231, 2955, 2956, 2959, 2958
1775, 3229, 3230, 3233, 3232, 2956, 2957, 2960, 2959
1776, 3230, 3026, 3027, 3233, 2957, 2850, 2851, 2960
1777, 2982, 3231, 3234, 2983, 2857, 2958, 2961, 2856
1778, 3231, 3232, 3235, 3234, 2958, 2959, 2962, 2961
1779, 3232, 3233, 3236, 3235, 2959, 2960, 2963, 2962
1780, 3233, 3027, 3028, 3236, 2960, 2851, 2852, 2963
** ... 380 like lines cut
*Nset, nset=Part-RiverBank-2__PickedSet2, generate
2833, 3437,    1
*Elset, elset=Part-RiverBank-2__PickedSet2, generate
1761, 2160,    1
** Section: Section-RiverBank
*Solid Section, elset=Part-RiverBank-2__PickedSet2, material=Granite
,
** ----------------------------------------------------------------
** 
** PART INSTANCE: Part-SupportBeam-1
** 
*System
          0.,        -10.,        -30.,          1.,        -10.,        -30.
          0.,        -10.,        -29.
*Node
   3438,        -200.,           0.,           0.
   3439,        -250.,           0.,           0.
   3440,        -200.,          30.,           0.
   3441,        -150.,           0.,           0.
   3442,        -150.,          30.,           0.
   3443,        -100.,          30.,           0.
   3444,         -50.,           0.,           0.
   3445,         -50.,          30.,           0.
   3446,        -100.,           0.,           0.
   3447,           0.,          30.,           0.
   3448,          50.,           0.,           0.
   3449,           0.,           0.,           0.
   3450,         100.,           0.,           0.
   3451,         100.,          30.,           0.
   3452,         150.,           0.,           0.
   3453,          50.,          30.,           0.
   3454,         200.,           0.,           0.
   3455,         200.,          30.,           0.
   3456,         250.,           0.,           0.
   3457,         150.,          30.,           0.
** ... 323 like lines cut
*Element, type=B31
2161, 3438, 3458
2162, 3458, 3459
2163, 3459, 3460
2164, 3460, 3461
2165, 3461, 3462
2166, 3462, 3463
2167, 3463, 3464
2168, 3464, 3465
2169, 3465, 3466
2170, 3466, 3467
2171, 3467, 3468
2172, 3468, 3469
2173, 3469, 3439
2174, 3440, 3470
2175, 3470, 3471
2176, 3471, 3472
2177, 3472, 3473
2178, 3473, 3474
2179, 3474, 3475
2180, 3475, 3476
** ... 332 like lines cut
*Nset, nset=Part-SupportBeam-1__PickedSet2, generate
3438, 3780,    1
*Elset, elset=Part-SupportBeam-1__PickedSet2, generate
2161, 2512,    1
** Section: Section-SupportBeam  Profile: Profile-SupportBeam
*Beam Section, elset=Part-SupportBeam-1__PickedSet2, material=Aluminum, temperature=GRADIENTS, section=BOX
2., 2., 0.1, 0.1, 0.1, 0.1
0.,1.,-6.12323e-17
** ----------------------------------------------------------------
** 
** PART INSTANCE: Part-SupportBeam-2
** 
*System
          0.,         10.,        -30.,          1.,         10.,        -30.
          0.,         10.,        -29.
*Node
   3781,        -200.,           0.,           0.
   3782,        -250.,           0.,           0.
   3783,        -200.,          30.,           0.
   3784,        -150.,           0.,           0.
   3785,        -150.,          30.,           0.
   3786,        -100.,          30.,           0.
   3787,         -50.,           0.,           0.
   3788,         -50.,          30.,           0.
   3789,        -100.,           0.,           0.
   3790,           0.,          30.,           0.
   3791,          50.,           0.,           0.
   3792,           0.,           0.,           0.
   3793,         100.,           0.,           0.
   3794,         100.,          30.,           0.
   3795,         150.,           0.,           0.
   3796,          50.,          30.,           0.
   3797,         200.,           0.,           0.
   3798,         200.,          30.,           0.
   3799,         250.,           0.,           0.
   3800,         150.,          30.,           0.
** ... 323 like lines cut
*Element, type=B31
2513, 3781, 3801
2514, 3801, 3802
2515, 3802, 3803
2516, 3803, 3804
2517, 3804, 3805
2518, 3805, 3806
2519, 3806, 3807
2520, 3807, 3808
2521, 3808, 3809
2522, 3809, 3810
2523, 3810, 3811
2524, 3811, 3812
2525, 3812, 3782
2526, 3783, 3813
2527, 3813, 3814
2528, 3814, 3815
2529, 3815, 3816
2530, 3816, 3817
2531, 3817, 3818
2532, 3818, 3819
** ... 332 like lines cut
*Nset, nset=Part-SupportBeam-2__PickedSet2, generate
3781, 4123,    1
*Elset, elset=Part-SupportBeam-2__PickedSet2, generate
2513, 2864,    1
** Section: Section-SupportBeam  Profile: Profile-SupportBeam
*Beam Section, elset=Part-SupportBeam-2__PickedSet2, material=Aluminum, temperature=GRADIENTS, section=BOX
2., 2., 0.1, 0.1, 0.1, 0.1
0.,1.,-6.12323e-17
** ----------------------------------------------------------------
** 
** PART INSTANCE: Part-Cable50-1
** 
*System
          0.,        -10.,          0.,         -1.,        -10.,          0.
 -7.49879891330929e-33,        -10.,          1.
*Node
   4124,          50.,           0.,           0.
   4125,           0.,         150.,           0.
*Element, type=T3D2
2865, 4124, 4125
*Nset, nset=Part-Cable50-1__PickedSet2
4124,4125
*Elset, elset=Part-Cable50-1__PickedSet2
2865,
** Section: Section-Cable
*Solid Section, elset=Part-Cable50-1__PickedSet2, material=Steel
0.25,
** ----------------------------------------------------------------
** 
** PART INSTANCE: Part-Cable100-1
** 
*System
          0.,        -10.,          0.,         -1.,        -10.,          0.
 -7.49879891330929e-33,        -10.,          1.
*Node
   4126,         100.,           0.,           0.
   4127,           0.,         150.,           0.
*Element, type=T3D2
2866, 4126, 4127
*Nset, nset=Part-Cable100-1__PickedSet2
4126,4127
*Elset, elset=Part-Cable100-1__PickedSet2
2866,
** Section: Section-Cable
*Solid Section, elset=Part-Cable100-1__PickedSet2, material=Steel
0.25,
** ----------------------------------------------------------------
** 
** PART INSTANCE: Part-Cable150-1
** 
*System
          0.,        -10.,          0.,         -1.,        -10.,          0.
 -7.49879891330929e-33,        -10.,          1.
*Node
   4128,         150.,           0.,           0.
   4129,           0.,         150.,           0.
*Element, type=T3D2
2867, 4128, 4129
*Nset, nset=Part-Cable150-1__PickedSet2
4128,4129
*Elset, elset=Part-Cable150-1__PickedSet2
2867,
** Section: Section-Cable
*Solid Section, elset=Part-Cable150-1__PickedSet2, material=Steel
0.25,
** ----------------------------------------------------------------
** 
** PART INSTANCE: Part-Cable200-1
** 
*System
          0.,        -10.,          0.,         -1.,        -10.,          0.
 -7.49879891330929e-33,        -10.,          1.
*Node
   4130,         200.,           0.,           0.
   4131,           0.,         150.,           0.
*Element, type=T3D2
2868, 4130, 4131
*Nset, nset=Part-Cable200-1__PickedSet2
4130,4131
*Elset, elset=Part-Cable200-1__PickedSet2
2868,
** Section: Section-Cable
*Solid Section, elset=Part-Cable200-1__PickedSet2, material=Steel
0.25,
** ----------------------------------------------------------------
** 
** PART INSTANCE: Part-Cable250-1
** 
*System
          0.,        -10.,          0.,         -1.,        -10.,          0.
 -7.49879891330929e-33,        -10.,          1.
*Node
   4132,         250.,           0.,           0.
   4133,           0.,         150.,           0.
*Element, type=T3D2
2869, 4132, 4133
*Nset, nset=Part-Cable250-1__PickedSet2
4132,4133
*Elset, elset=Part-Cable250-1__PickedSet2
2869,
** Section: Section-Cable
*Solid Section, elset=Part-Cable250-1__PickedSet2, material=Steel
0.25,
** ----------------------------------------------------------------
** 
** PART INSTANCE: Part-Cable50-2
** 
*System
          0.,         10.,          0.,         -1.,         10.,          0.
 -7.49879891330929e-33,         10.,          1.
*Node
   4134,          50.,           0.,           0.
   4135,           0.,         150.,           0.
*Element, type=T3D2
2870, 4134, 4135
*Nset, nset=Part-Cable50-2__PickedSet2
4134,4135
*Elset, elset=Part-Cable50-2__PickedSet2
2870,
** Section: Section-Cable
*Solid Section, elset=Part-Cable50-2__PickedSet2, material=Steel
0.25,
** ----------------------------------------------------------------
** 
** PART INSTANCE: Part-Cable100-2
** 
*System
          0.,         10.,          0.,         -1.,         10.,          0.
 -7.49879891330929e-33,         10.,          1.
*Node
   4136,         100.,           0.,           0.
   4137,           0.,         150.,           0.
*Element, type=T3D2
2871, 4136, 4137
*Nset, nset=Part-Cable100-2__PickedSet2
4136,4137
*Elset, elset=Part-Cable100-2__PickedSet2
2871,
** Section: Section-Cable
*Solid Section, elset=Part-Cable100-2__PickedSet2, material=Steel
0.25,
** ----------------------------------------------------------------
** 
** PART INSTANCE: Part-Cable150-2
** 
*System
          0.,         10.,          0.,         -1.,         10.,          0.
 -7.49879891330929e-33,         10.,          1.
*Node
   4138,         150.,           0.,           0.
   4139,           0.,         150.,           0.
*Element, type=T3D2
2872, 4138, 4139
*Nset, nset=Part-Cable150-2__PickedSet2
4138,4139
*Elset, elset=Part-Cable150-2__PickedSet2
2872,
** Section: Section-Cable
*Solid Section, elset=Part-Cable150-2__PickedSet2, material=Steel
0.25,
** ----------------------------------------------------------------
** 
** PART INSTANCE: Part-Cable200-2
** 
*System
          0.,         10.,          0.,         -1.,         10.,          0.
 -7.49879891330929e-33,         10.,          1.
*Node
   4140,         200.,           0.,           0.
   4141,           0.,         150.,           0.
*Element, type=T3D2
2873, 4140, 4141
*Nset, nset=Part-Cable200-2__PickedSet2
4140,4141
*Elset, elset=Part-Cable200-2__PickedSet2
2873,
** Section: Section-Cable
*Solid Section, elset=Part-Cable200-2__PickedSet2, material=Steel
0.25,
** ----------------------------------------------------------------
** 
** PART INSTANCE: Part-Cable250-2
** 
*System
          0.,         10.,          0.,         -1.,         10.,          0.
 -7.49879891330929e-33,         10.,          1.
*Node
   4142,         250.,           0.,           0.
   4143,           0.,         150.,           0.
*Element, type=T3D2
2874, 4142, 4143
*Nset, nset=Part-Cable250-2__PickedSet2
4142,4143
*Elset, elset=Part-Cable250-2__PickedSet2
2874,
** Section: Section-Cable
*Solid Section, elset=Part-Cable250-2__PickedSet2, material=Steel
0.25,
** ----------------------------------------------------------------
** 
** PART INSTANCE: Part-Cable50-3
** 
*System
          0.,        -10.,          0.,          1.,        -10.,          0.
          0.,        -10.,          1.
*Node
   4144,          50.,           0.,           0.
   4145,           0.,         150.,           0.
*Element, type=T3D2
2875, 4144, 4145
*Nset, nset=Part-Cable50-3__PickedSet2
4144,4145
*Elset, elset=Part-Cable50-3__PickedSet2
2875,
** Section: Section-Cable
*Solid Section, elset=Part-Cable50-3__PickedSet2, material=Steel
0.25,
** ----------------------------------------------------------------
** 
** PART INSTANCE: Part-Cable100-3
** 
*System
          0.,        -10.,          0.,          1.,        -10.,          0.
          0.,        -10.,          1.
*Node
   4146,         100.,           0.,           0.
   4147,           0.,         150.,           0.
*Element, type=T3D2
2876, 4146, 4147
*Nset, nset=Part-Cable100-3__PickedSet2
4146,4147
*Elset, elset=Part-Cable100-3__PickedSet2
2876,
** Section: Section-Cable
*Solid Section, elset=Part-Cable100-3__PickedSet2, material=Steel
0.25,
** ----------------------------------------------------------------
** 
** PART INSTANCE: Part-Cable150-3
** 
*System
          0.,        -10.,          0.,          1.,        -10.,          0.
          0.,        -10.,          1.
*Node
   4148,         150.,           0.,           0.
   4149,           0.,         150.,           0.
*Element, type=T3D2
2877, 4148, 4149
*Nset, nset=Part-Cable150-3__PickedSet2
4148,4149
*Elset, elset=Part-Cable150-3__PickedSet2
2877,
** Section: Section-Cable
*Solid Section, elset=Part-Cable150-3__PickedSet2, material=Steel
0.25,
** ----------------------------------------------------------------
** 
** PART INSTANCE: Part-Cable200-3
** 
*System
          0.,        -10.,          0.,          1.,        -10.,          0.
          0.,        -10.,          1.
*Node
   4150,         200.,           0.,           0.
   4151,           0.,         150.,           0.
*Element, type=T3D2
2878, 4150, 4151
*Nset, nset=Part-Cable200-3__PickedSet2
4150,4151
*Elset, elset=Part-Cable200-3__PickedSet2
2878,
** Section: Section-Cable
*Solid Section, elset=Part-Cable200-3__PickedSet2, material=Steel
0.25,
** ----------------------------------------------------------------
** 
** PART INSTANCE: Part-Cable250-3
** 
*System
          0.,        -10.,          0.,          1.,        -10.,          0.
          0.,        -10.,          1.
*Node
   4152,         250.,           0.,           0.
   4153,           0.,         150.,           0.
*Element, type=T3D2
2879, 4152, 4153
*Nset, nset=Part-Cable250-3__PickedSet2
4152,4153
*Elset, elset=Part-Cable250-3__PickedSet2
2879,
** Section: Section-Cable
*Solid Section, elset=Part-Cable250-3__PickedSet2, material=Steel
0.25,
** ----------------------------------------------------------------
** 
** PART INSTANCE: Part-Cable50-4
** 
*System
          0.,         10.,          0.,          1.,         10.,          0.
          0.,         10.,          1.
*Node
   4154,          50.,           0.,           0.
   4155,           0.,         150.,           0.
*Element, type=T3D2
2880, 4154, 4155
*Nset, nset=Part-Cable50-4__PickedSet2
4154,4155
*Elset, elset=Part-Cable50-4__PickedSet2
2880,
** Section: Section-Cable
*Solid Section, elset=Part-Cable50-4__PickedSet2, material=Steel
0.25,
** ----------------------------------------------------------------
** 
** PART INSTANCE: Part-Cable100-4
** 
*System
          0.,         10.,          0.,          1.,         10.,          0.
          0.,         10.,          1.
*Node
   4156,         100.,           0.,           0.
   4157,           0.,         150.,           0.
*Element, type=T3D2
2881, 4156, 4157
*Nset, nset=Part-Cable100-4__PickedSet2
4156,4157
*Elset, elset=Part-Cable100-4__PickedSet2
2881,
** Section: Section-Cable
*Solid Section, elset=Part-Cable100-4__PickedSet2, material=Steel
0.25,
** ----------------------------------------------------------------
** 
** PART INSTANCE: Part-Cable150-4
** 
*System
          0.,         10.,          0.,          1.,         10.,          0.
          0.,         10.,          1.
*Node
   4158,         150.,           0.,           0.
   4159,           0.,         150.,           0.
*Element, type=T3D2
2882, 4158, 4159
*Nset, nset=Part-Cable150-4__PickedSet2
4158,4159
*Elset, elset=Part-Cable150-4__PickedSet2
2882,
** Section: Section-Cable
*Solid Section, elset=Part-Cable150-4__PickedSet2, material=Steel
0.25,
** ----------------------------------------------------------------
** 
** PART INSTANCE: Part-Cable200-4
** 
*System
          0.,         10.,          0.,          1.,         10.,          0.
          0.,         10.,          1.
*Node
   4160,         200.,           0.,           0.
   4161,           0.,         150.,           0.
*Element, type=T3D2
2883, 4160, 4161
*Nset, nset=Part-Cable200-4__PickedSet2
4160,4161
*Elset, elset=Part-Cable200-4__PickedSet2
2883,
** Section: Section-Cable
*Solid Section, elset=Part-Cable200-4__PickedSet2, material=Steel
0.25,
** ----------------------------------------------------------------
** 
** PART INSTANCE: Part-Cable250-4
** 
*System
          0.,         10.,          0.,          1.,         10.,          0.
          0.,         10.,          1.
*Node
   4162,         250.,           0.,           0.
   4163,           0.,         150.,           0.
*Element, type=T3D2
2884, 4162, 4163
*Nset, nset=Part-Cable250-4__PickedSet2
4162,4163
*Elset, elset=Part-Cable250-4__PickedSet2
2884,
** Section: Section-Cable
*Solid Section, elset=Part-Cable250-4__PickedSet2, material=Steel
0.25,
*System
*Nset, nset=Set-102
 506, 507, 508, 509, 514, 515, 518, 519, 520, 521, 522, 523, 686, 687, 688, 689
 690, 774, 775,1012,1013
*Nset, nset=Set-102
1367,1368,1369,1370,1375,1376,1379,1380,1381,1382,1383,1384,1547,1548,1549,1550
1551,1635,1636,1873,1874
*Nset, nset=Set-102
2841,2842,2843,2844,2916,2917,2918,2925,2926,2927,2931,2932,2933,2934,2935,2936
2937,2938,2939,2940,2941,2942,2943,2944,2945,2946,2947,2948,3195,3196,3197,3198
3199,3200,3201,3202,3203,3204,3205,3206,3207,3208,3209,3210,3211,3212,3213,3214
3215,3216,3217,3218,3219,3220,3221
*Nset, nset=Set-102
2236,2237,2238,2239,2311,2312,2313,2320,2321,2322,2326,2327,2328,2329,2330,2331
2332,2333,2334,2335,2336,2337,2338,2339,2340,2341,2342,2343,2590,2591,2592,2593
2594,2595,2596,2597,2598,2599,2600,2601,2602,2603,2604,2605,2606,2607,2608,2609
2610,2611,2612,2613,2614,2615,2616
*Elset, elset=Set-102
 401, 402, 403, 404, 405, 406, 641, 642, 643, 644, 645, 646
*Elset, elset=Set-102
 881, 882, 883, 884, 885, 886,1121,1122,1123,1124,1125,1126
*Elset, elset=Set-102
2013,2014,2015,2016,2029,2030,2031,2032,2045,2046,2047,2048,2061,2062,2063,2064
2077,2078,2079,2080,2093,2094,2095,2096,2109,2110,2111,2112,2125,2126,2127,2128
2141,2142,2143,2144,2157,2158,2159,2160
*Elset, elset=Set-102
1613,1614,1615,1616,1629,1630,1631,1632,1645,1646,1647,1648,1661,1662,1663,1664
1677,1678,1679,1680,1693,1694,1695,1696,1709,1710,1711,1712,1725,1726,1727,1728
1741,1742,1743,1744,1757,1758,1759,1760
*Nset, nset=Set-CablesGroup1
4124,4125
*Nset, nset=Set-CablesGroup1
4126,4127
*Nset, nset=Set-CablesGroup1
4130,4131
*Nset, nset=Set-CablesGroup1
4128,4129
*Nset, nset=Set-CablesGroup1
4132,4133
*Elset, elset=Set-CablesGroup1
2865,
*Elset, elset=Set-CablesGroup1
2866,
*Elset, elset=Set-CablesGroup1
2868,
*Elset, elset=Set-CablesGroup1
2867,
*Elset, elset=Set-CablesGroup1
2869,
*Nset, nset=Set-CablesGroup2
4134,4135
*Nset, nset=Set-CablesGroup2
4136,4137
*Nset, nset=Set-CablesGroup2
4138,4139
*Nset, nset=Set-CablesGroup2
4142,4143
*Nset, nset=Set-CablesGroup2
4140,4141
*Elset, elset=Set-CablesGroup2
2870,
*Elset, elset=Set-CablesGroup2
2871,
*Elset, elset=Set-CablesGroup2
2872,
*Elset, elset=Set-CablesGroup2
2874,
*Elset, elset=Set-CablesGroup2
2873,
*Nset, nset=Set-CablesGroup3
4144,4145
*Nset, nset=Set-CablesGroup3
4146,4147
*Nset, nset=Set-CablesGroup3
4148,4149
*Nset, nset=Set-CablesGroup3
4152,4153
*Nset, nset=Set-CablesGroup3
4150,4151
*Elset, elset=Set-CablesGroup3
2875,
*Elset, elset=Set-CablesGroup3
2876,
*Elset, elset=Set-CablesGroup3
2877,
*Elset, elset=Set-CablesGroup3
2879,
*Elset, elset=Set-CablesGroup3
2878,
*Nset, nset=m_Set-6
 2,
*Nset, nset=m_Set-8
 3,
*Nset, nset=m_Set-10
 5,
*Nset, nset=m_Set-12
 22,
*Nset, nset=m_Set-13
 7,
*Nset, nset=m_Set-14
 21,
*Nset, nset=m_Set-16
 1,
*Nset, nset=m_Set-18
 4,
*Nset, nset=m_Set-20
 6,
*Nset, nset=m_Set-22
 8,
*Nset, nset=m_Set-24
 19,
*Nset, nset=m_Set-26
 17,
*Nset, nset=m_Set-28
 15,
*Nset, nset=m_Set-30
 13,
*Nset, nset=m_Set-32
 11,
*Nset, nset=m_Set-34
 20,
*Nset, nset=m_Set-36
 18,
*Nset, nset=m_Set-38
 16,
*Nset, nset=m_Set-40
 14,
*Nset, nset=m_Set-42
** ... 49 like lines cut
*Elset, elset=m_Set-90, generate
1781, 1784,   1
*Nset, nset=m_Set-92
2233,2234,2264,2265,2266
*Elset, elset=m_Set-92, generate
1597, 1600,    1
*Nset, nset=m_Set-94
513,
*Nset, nset=m_Set-96
513,
*Nset, nset=m_Set-98
1371,
*Nset, nset=m_Set-100
1371,
*Nset, nset=s_Set-6
4160,
*Nset, nset=s_Set-8
4158,
*Nset, nset=s_Set-10
4156,
*Nset, nset=s_Set-12
4162,
*Nset, nset=s_Set-13
4154,
*Nset, nset=s_Set-14
4152,
*Nset, nset=s_Set-16
4150,
*Nset, nset=s_Set-18
4148,
*Nset, nset=s_Set-20
4146,
*Nset, nset=s_Set-22
4144,
*Nset, nset=s_Set-24
4142,
*Nset, nset=s_Set-26
4140,
*Nset, nset=s_Set-28
4138,
*Nset, nset=s_Set-30
4136,
*Nset, nset=s_Set-32
4134,
*Nset, nset=s_Set-34
4132,
*Nset, nset=s_Set-36
4130,
*Nset, nset=s_Set-38
4128,
*Nset, nset=s_Set-40
4126,
*Nset, nset=s_Set-42
** ... 49 like lines cut
*Elset, elset=s_Set-90, generate
 397,  400,    1
*Nset, nset=s_Set-92
  19,  20, 203, 204, 205
*Elset, elset=s_Set-92, generate
 357,  360,    1
*Nset, nset=s_Set-94
4145,
*Nset, nset=s_Set-94
4147,
*Nset, nset=s_Set-94
4149,
*Nset, nset=s_Set-94
4153,
*Nset, nset=s_Set-94
4151,
*Nset, nset=s_Set-96
4125,
*Nset, nset=s_Set-96
4127,
*Nset, nset=s_Set-96
4131,
*Nset, nset=s_Set-96
4129,
*Nset, nset=s_Set-96
4133,
*Nset, nset=s_Set-98
4155,
*Nset, nset=s_Set-98
4157,
*Nset, nset=s_Set-98
4161,
*Nset, nset=s_Set-98
4159,
*Nset, nset=s_Set-98
4163,
*Nset, nset=s_Set-100
4135,
*Nset, nset=s_Set-100
4137,
*Nset, nset=s_Set-100
4139,
*Nset, nset=s_Set-100
4143,
*Nset, nset=s_Set-100
4141,
*Surface, type=NODE, name=m_Set-6_CNS_
m_Set-6, 1.
*Surface, type=NODE, name=s_Set-6_CNS_
s_Set-6, 1.
*Surface, type=NODE, name=m_Set-8_CNS_
m_Set-8, 1.
*Surface, type=NODE, name=s_Set-8_CNS_
s_Set-8, 1.
*Surface, type=NODE, name=m_Set-10_CNS_
m_Set-10, 1.
*Surface, type=NODE, name=s_Set-10_CNS_
s_Set-10, 1.
*Surface, type=NODE, name=m_Set-12_CNS_
m_Set-12, 1.
*Surface, type=NODE, name=s_Set-12_CNS_
s_Set-12, 1.
*Surface, type=NODE, name=m_Set-13_CNS_
m_Set-13, 1.
*Surface, type=NODE, name=s_Set-13_CNS_
s_Set-13, 1.
*Surface, type=NODE, name=m_Set-14_CNS_
m_Set-14, 1.
*Surface, type=NODE, name=s_Set-14_CNS_
s_Set-14, 1.
*Surface, type=NODE, name=m_Set-16_CNS_
m_Set-16, 1.
*Surface, type=NODE, name=s_Set-16_CNS_
s_Set-16, 1.
*Surface, type=NODE, name=m_Set-18_CNS_
m_Set-18, 1.
*Surface, type=NODE, name=s_Set-18_CNS_
s_Set-18, 1.
*Surface, type=NODE, name=m_Set-20_CNS_
m_Set-20, 1.
*Surface, type=NODE, name=s_Set-20_CNS_
s_Set-20, 1.
*Surface, type=NODE, name=m_Set-22_CNS_
m_Set-22, 1.
*Surface, type=NODE, name=s_Set-22_CNS_
s_Set-22, 1.
*Surface, type=NODE, name=m_Set-24_CNS_
m_Set-24, 1.
*Surface, type=NODE, name=s_Set-24_CNS_
s_Set-24, 1.
*Surface, type=NODE, name=m_Set-26_CNS_
m_Set-26, 1.
*Surface, type=NODE, name=s_Set-26_CNS_
s_Set-26, 1.
*Surface, type=NODE, name=m_Set-28_CNS_
m_Set-28, 1.
*Surface, type=NODE, name=s_Set-28_CNS_
s_Set-28, 1.
*Surface, type=NODE, name=m_Set-30_CNS_
m_Set-30, 1.
*Surface, type=NODE, name=s_Set-30_CNS_
s_Set-30, 1.
*Surface, type=NODE, name=m_Set-32_CNS_
m_Set-32, 1.
*Surface, type=NODE, name=s_Set-32_CNS_
s_Set-32, 1.
*Surface, type=NODE, name=m_Set-34_CNS_
m_Set-34, 1.
*Surface, type=NODE, name=s_Set-34_CNS_
s_Set-34, 1.
*Surface, type=NODE, name=m_Set-36_CNS_
m_Set-36, 1.
*Surface, type=NODE, name=s_Set-36_CNS_
s_Set-36, 1.
*Surface, type=NODE, name=m_Set-38_CNS_
m_Set-38, 1.
*Surface, type=NODE, name=s_Set-38_CNS_
s_Set-38, 1.
*Surface, type=NODE, name=m_Set-40_CNS_
m_Set-40, 1.
*Surface, type=NODE, name=s_Set-40_CNS_
s_Set-40, 1.
*Surface, type=NODE, name=m_Set-42_CNS_
m_Set-42, 1.
*Surface, type=NODE, name=s_Set-42_CNS_
s_Set-42, 1.
*Surface, type=NODE, name=m_Set-46_CNS_
m_Set-46, 1.
*Surface, type=NODE, name=s_Set-46_CNS_
s_Set-46, 1.
*Surface, type=NODE, name=m_Set-48_CNS_
m_Set-48, 1.
*Surface, type=NODE, name=s_Set-48_CNS_
s_Set-48, 1.
*Surface, type=NODE, name=m_Set-50_CNS_
m_Set-50, 1.
*Surface, type=NODE, name=s_Set-50_CNS_
s_Set-50, 1.
*Surface, type=NODE, name=m_Set-52_CNS_
m_Set-52, 1.
*Surface, type=NODE, name=s_Set-52_CNS_
s_Set-52, 1.
*Surface, type=NODE, name=m_Set-54_CNS_
m_Set-54, 1.
*Surface, type=NODE, name=s_Set-54_CNS_
s_Set-54, 1.
*Surface, type=NODE, name=m_Set-56_CNS_
m_Set-56, 1.
*Surface, type=NODE, name=s_Set-56_CNS_
s_Set-56, 1.
*Surface, type=NODE, name=m_Set-58_CNS_
m_Set-58, 1.
*Surface, type=NODE, name=s_Set-58_CNS_
s_Set-58, 1.
*Surface, type=NODE, name=m_Set-60_CNS_
m_Set-60, 1.
*Surface, type=NODE, name=s_Set-60_CNS_
s_Set-60, 1.
*Surface, type=NODE, name=m_Set-62_CNS_
m_Set-62, 1.
*Surface, type=NODE, name=s_Set-62_CNS_
s_Set-62, 1.
*Surface, type=NODE, name=m_Set-64_CNS_
m_Set-64, 1.
*Surface, type=NODE, name=s_Set-64_CNS_
s_Set-64, 1.
*Surface, type=NODE, name=m_Set-66_CNS_
m_Set-66, 1.
*Surface, type=NODE, name=s_Set-66_CNS_
s_Set-66, 1.
*Surface, type=NODE, name=m_Set-68_CNS_
m_Set-68, 1.
*Surface, type=NODE, name=s_Set-68_CNS_
s_Set-68, 1.
*Surface, type=NODE, name=m_Set-70_CNS_
m_Set-70, 1.
*Surface, type=NODE, name=s_Set-70_CNS_
s_Set-70, 1.
*Surface, type=NODE, name=m_Set-72_CNS_
m_Set-72, 1.
*Surface, type=NODE, name=s_Set-72_CNS_
s_Set-72, 1.
*Surface, type=NODE, name=m_Set-74_CNS_
m_Set-74, 1.
*Surface, type=NODE, name=s_Set-74_CNS_
s_Set-74, 1.
*Surface, type=NODE, name=m_Set-76_CNS_
m_Set-76, 1.
*Surface, type=NODE, name=s_Set-76_CNS_
s_Set-76, 1.
*Surface, type=NODE, name=m_Set-78_CNS_
m_Set-78, 1.
*Surface, type=NODE, name=s_Set-78_CNS_
s_Set-78, 1.
*Surface, type=NODE, name=m_Set-80_CNS_
m_Set-80, 1.
*Surface, type=NODE, name=s_Set-80_CNS_
s_Set-80, 1.
*Surface, type=NODE, name=m_Set-82_CNS_
m_Set-82, 1.
*Surface, type=NODE, name=s_Set-82_CNS_
s_Set-82, 1.
*Surface, type=NODE, name=m_Set-84_CNS_
m_Set-84, 1.
*Surface, type=NODE, name=s_Set-84_CNS_
s_Set-84, 1.
*Surface, type=NODE, name=m_Set-86_CNS_
m_Set-86, 1.
*Surface, type=NODE, name=s_Set-86_CNS_
s_Set-86, 1.
*Surface, type=NODE, name=m_Set-88_CNS_
m_Set-88, 1.
*Surface, type=NODE, name=s_Set-88_CNS_
s_Set-88, 1.
*Surface, type=NODE, name=m_Set-90_CNS_
m_Set-90, 1.
*Surface, type=NODE, name=s_Set-90_CNS_
s_Set-90, 1.
*Surface, type=NODE, name=m_Set-92_CNS_
m_Set-92, 1.
*Surface, type=NODE, name=s_Set-92_CNS_
s_Set-92, 1.
*Surface, type=NODE, name=m_Set-94_CNS_
m_Set-94, 1.
*Surface, type=NODE, name=s_Set-94_CNS_
s_Set-94, 1.
*Surface, type=NODE, name=m_Set-96_CNS_
m_Set-96, 1.
*Surface, type=NODE, name=s_Set-96_CNS_
s_Set-96, 1.
*Surface, type=NODE, name=m_Set-98_CNS_
m_Set-98, 1.
*Surface, type=NODE, name=s_Set-98_CNS_
s_Set-98, 1.
*Surface, type=NODE, name=m_Set-100_CNS_
m_Set-100, 1.
*Surface, type=NODE, name=s_Set-100_CNS_
s_Set-100, 1.
** Constraint: Constraint-2
*Tie, name=Constraint-2, adjust=yes, no rotation
s_Set-6_CNS_, m_Set-6_CNS_
** Constraint: Constraint-3
*Tie, name=Constraint-3, adjust=yes, no rotation
s_Set-8_CNS_, m_Set-8_CNS_
** Constraint: Constraint-4
*Tie, name=Constraint-4, adjust=yes, no rotation
s_Set-10_CNS_, m_Set-10_CNS_
** Constraint: Constraint-5
*Tie, name=Constraint-5, adjust=yes, no rotation
s_Set-12_CNS_, m_Set-12_CNS_
** Constraint: Constraint-6
*Tie, name=Constraint-6, adjust=yes, no rotation
s_Set-13_CNS_, m_Set-13_CNS_
** Constraint: Constraint-7
*Tie, name=Constraint-7, adjust=yes
s_Set-14_CNS_, m_Set-14_CNS_
** Constraint: Constraint-8
*Tie, name=Constraint-8, adjust=yes
s_Set-16_CNS_, m_Set-16_CNS_
** Constraint: Constraint-9
*Tie, name=Constraint-9, adjust=no
s_Set-18_CNS_, m_Set-18_CNS_
** Constraint: Constraint-10
*Tie, name=Constraint-10, adjust=yes, no rotation
s_Set-20_CNS_, m_Set-20_CNS_
** Constraint: Constraint-11
*Tie, name=Constraint-11, adjust=yes, no rotation
s_Set-22_CNS_, m_Set-22_CNS_
** Constraint: Constraint-12
*Tie, name=Constraint-12, adjust=yes, no rotation
s_Set-24_CNS_, m_Set-24_CNS_
** Constraint: Constraint-13
*Tie, name=Constraint-13, adjust=yes, no rotation
s_Set-26_CNS_, m_Set-26_CNS_
** Constraint: Constraint-14
*Tie, name=Constraint-14, adjust=yes, no rotation
s_Set-28_CNS_, m_Set-28_CNS_
** Constraint: Constraint-15
*Tie, name=Constraint-15, adjust=yes, no rotation
s_Set-30_CNS_, m_Set-30_CNS_
** Constraint: Constraint-16
*Tie, name=Constraint-16, adjust=yes, no rotation
s_Set-32_CNS_, m_Set-32_CNS_
** Constraint: Constraint-17
*Tie, name=Constraint-17, adjust=yes, no rotation
s_Set-34_CNS_, m_Set-34_CNS_
** Constraint: Constraint-18
*Tie, name=Constraint-18, adjust=yes, no rotation
s_Set-36_CNS_, m_Set-36_CNS_
** Constraint: Constraint-19
*Tie, name=Constraint-19, adjust=yes, no rotation
s_Set-38_CNS_, m_Set-38_CNS_
** Constraint: Constraint-20
*Tie, name=Constraint-20, adjust=yes, no rotation
s_Set-40_CNS_, m_Set-40_CNS_
** Constraint: Constraint-21
*Tie, name=Constraint-21, adjust=yes, no rotation
s_Set-42_CNS_, m_Set-42_CNS_
** Constraint: Constraint-22
*Tie, name=Constraint-22, adjust=yes, no rotation
s_Set-46_CNS_, m_Set-46_CNS_
** Constraint: Constraint-23
*Tie, name=Constraint-23, adjust=yes, no rotation
s_Set-48_CNS_, m_Set-48_CNS_
** Constraint: Constraint-24
*Tie, name=Constraint-24, adjust=yes, no rotation
s_Set-50_CNS_, m_Set-50_CNS_
** Constraint: Constraint-25
*Tie, name=Constraint-25, adjust=yes, no rotation
s_Set-52_CNS_, m_Set-52_CNS_
** Constraint: Constraint-26
*Tie, name=Constraint-26, adjust=yes, no rotation
s_Set-54_CNS_, m_Set-54_CNS_
** Constraint: Constraint-27
*Tie, name=Constraint-27, adjust=yes, no rotation
s_Set-56_CNS_, m_Set-56_CNS_
** Constraint: Constraint-28
*Tie, name=Constraint-28, adjust=yes, no rotation
s_Set-58_CNS_, m_Set-58_CNS_
** Constraint: Constraint-29
*Tie, name=Constraint-29, adjust=yes, no rotation
** ... 61 like lines cut
** 
** MATERIALS
** 
** For the SupportBeam
*Material, name=Aluminum
*Density
2710.,
*Elastic
 7e+10, 0.346
** For the Pier and the Floor
*Material, name=Concrete
*Density
2320.,
*Elastic
 2.5e+10, 0.3
** For the RiverBank
*Material, name=Granite
*Density
2770.,
*Elastic
 6e+10, 0.27
** For the Cable
*Material, name=Steel
*Density
7860.,
*Elastic
 1.17e+11, 0.266
** ----------------------------------------------------------------
** 
** STEP: Step-1
** 
*Step, name=Step-1, nlgeom=NO
*Static
1., 1., 1e-05, 1.
** 
** BOUNDARY CONDITIONS
** 
** Name: BC-1 Type: Displacement/Rotation
*Boundary
Set-102, 1, 1
Set-102, 2, 2
Set-102, 3, 3
** 
** LOADS
** 
** Name: Load-1   Type: Gravity
*Dload
, GRAV, 10., 0., 0., -1.
** 
** OUTPUT REQUESTS
** 
*Restart, write, frequency=0
** 
** FIELD OUTPUT: F-Output-1
** 
*Output, field, variable=PRESELECT
** 
** HISTORY OUTPUT: H-Output-1
** 
*Output, history, variable=PRESELECT
*End Step
