*Heading
** Job name: Job-1 Model name: Model-1
** Generated by: Abaqus/CAE 6.14-1
*Preprint, echo=NO, model=NO, history=NO, contact=NO
** ----------------------------------------------------------------
** 
** PART INSTANCE: Part-1-1
** 
*Node
      1,          -5.,          -5.,           2.
      2,          -5.,           0.,           2.
      3,          -5.,           5.,           2.
      4,          -5.,          -5.,           0.
      5,          -5.,           0.,           0.
      6,          -5.,           5.,           0.
      7,           0.,          -5.,           2.
      8,           0.,           0.,           2.
      9,           0.,           5.,           2.
     10,           0.,          -5.,           0.
     11,           0.,           0.,           0.
     12,           0.,           5.,           0.
     13,           5.,          -5.,           2.
     14,           5.,           0.,           2.
     15,           5.,           5.,           2.
     16,           5.,          -5.,           0.
     17,           5.,           0.,           0.
     18,           5.,           5.,           0.
*Element, type=C3D8
1,  7,  8, 11, 10,  1,  2,  5,  4
2,  8,  9, 12, 11,  2,  3,  6,  5
3, 13, 14, 17, 16,  7,  8, 11, 10
4, 14, 15, 18, 17,  8,  9, 12, 11
*Nset, nset=Part-1-1__PickedSet2, generate
  1,  18,   1
*Elset, elset=Part-1-1__PickedSet2, generate
 1,  4,  1
** Section: Granite
*Solid Section, elset=Part-1-1__PickedSet2, material=Granite
,
** ----------------------------------------------------------------
** 
** PART INSTANCE: Part-2-1
** 
*System
         10.,          0.,          0.,         11.,          0.,          0.
*Node
     19,           5.,           5.,           0.
     20,           0.,           5.,           0.
     21,          -5.,           5.,           0.
     22,           5.,           0.,           0.
     23,           0.,           0.,           0.
     24,          -5.,           0.,           0.
     25,           5.,          -5.,           0.
     26,           0.,          -5.,           0.
     27,          -5.,          -5.,           0.
*Element, type=S4R
5, 19, 20, 23, 22
6, 20, 21, 24, 23
7, 22, 23, 26, 25
8, 23, 24, 27, 26
*Nset, nset=Part-2-1__PickedSet2, generate
19, 27,  1
*Elset, elset=Part-2-1__PickedSet2, generate
 5,  8,  1
** Section: Concrete-shell
*Shell Section, elset=Part-2-1__PickedSet2, material=Concrete
0.008, 5
** ----------------------------------------------------------------
** 
** PART INSTANCE: Part-3-2
** 
*System
          0.,         -5.,          0.,          1.,         -5.,          0.
          0.,         -5.,          1.
*Node
     28,           5.,           2.,           0.
     29,          15.,           0.,           0.
*Element, type=T3D2
 9, 28, 29
*Nset, nset=Part-3-2__PickedSet6
28,29
*Elset, elset=Part-3-2__PickedSet6
 9,
** Section: Truss
*Solid Section, elset=Part-3-2__PickedSet6, material=Steel
0.25,
** ----------------------------------------------------------------
** 
** PART INSTANCE: Part-3-2-lin-1-2
** 
*System
          0.,          5.,          0.,          1.,          5.,          0.
          0.,          5.,          1.
*Node
     30,           5.,           2.,           0.
     31,          15.,           0.,           0.
*Element, type=T3D2
10, 30, 31
*Nset, nset=Part-3-2-lin-1-2__PickedSet6
30,31
*Elset, elset=Part-3-2-lin-1-2__PickedSet6
10,
** Section: Truss
*Solid Section, elset=Part-3-2-lin-1-2__PickedSet6, material=Steel
0.25,
*System
*Nset, nset=_PickedSet9, generate
 1,  6,  1
*Elset, elset=_PickedSet9
 1, 2
*Nset, nset=_PickedSet23
 13,
*Nset, nset=_PickedSet24
28,
*Nset, nset=_PickedSet25
 15,
*Nset, nset=_PickedSet26
30,
*Nset, nset=_PickedSet27
29,
*Nset, nset=_PickedSet28
25,
*Nset, nset=_PickedSet29
31,
*Nset, nset=_PickedSet30
19,
*Elset, elset=__PickedSurf16_SPOS, generate
 5,  8,  1
*Surface, type=ELEMENT, name=_PickedSurf16
__PickedSurf16_SPOS, SPOS
*Elset, elset=__PickedSurf31_S1
 3, 4
*Surface, type=ELEMENT, name=_PickedSurf31
__PickedSurf31_S1, S1
*Elset, elset=__PickedSurf32_E2
 6, 8
*Surface, type=ELEMENT, name=_PickedSurf32
__PickedSurf32_E2, E2
*Elset, elset=__PickedSurf33_S3, generate
 1,  4,  1
*Surface, type=ELEMENT, name=_PickedSurf33
__PickedSurf33_S3, S3
*Surface, type=NODE, name=_PickedSet23_CNS_
_PickedSet23, 1.
*Surface, type=NODE, name=_PickedSet24_CNS_
_PickedSet24, 1.
*Surface, type=NODE, name=_PickedSet25_CNS_
_PickedSet25, 1.
*Surface, type=NODE, name=_PickedSet26_CNS_
_PickedSet26, 1.
*Surface, type=NODE, name=_PickedSet27_CNS_
_PickedSet27, 1.
*Surface, type=NODE, name=_PickedSet28_CNS_
_PickedSet28, 1.
*Surface, type=NODE, name=_PickedSet29_CNS_
_PickedSet29, 1.
*Surface, type=NODE, name=_PickedSet30_CNS_
_PickedSet30, 1.
** Constraint: Constraint-3
*Tie, name=Constraint-3, adjust=yes
_PickedSet24_CNS_, _PickedSet23_CNS_
** Constraint: Constraint-4
*Tie, name=Constraint-4, adjust=yes
_PickedSet26_CNS_, _PickedSet25_CNS_
** Constraint: Constraint-5
*Tie, name=Constraint-5, adjust=yes
_PickedSet28_CNS_, _PickedSet27_CNS_
** Constraint: Constraint-6
*Tie, name=Constraint-6, adjust=yes
_PickedSet30_CNS_, _PickedSet29_CNS_
** Constraint: Constraint-7
*Tie, name=Constraint-7, adjust=yes
_PickedSurf32, _PickedSurf31
** 
** MATERIALS
** 
*Material, name=Concrete
*Elastic
 2.5e+10, 0.3
*Material, name=Granite
*Elastic
 6e+10, 0.27
*Material, name=Steel
*Elastic
 1.17e+11, 0.266
** ----------------------------------------------------------------
** 
** STEP: Step-1
** 
*Step, name=Step-1, nlgeom=NO
*Static
1., 1., 1e-05, 1.
** 
** BOUNDARY CONDITIONS
** 
** Name: BC-1 Type: Displacement/Rotation
*Boundary
_PickedSet9, 1, 1
_PickedSet9, 2, 2
_PickedSet9, 3, 3
** 
** LOADS
** 
** Name: Load-1   Type: Pressure
*Dsload
_PickedSurf16, P, 10000.
** 
** OUTPUT REQUESTS
** 
*Restart, write, frequency=0
** 
** FIELD OUTPUT: F-Output-1
** 
*Output, field, variable=PRESELECT
** 
** HISTORY OUTPUT: H-Output-1
** 
*Output, history, variable=PRESELECT
*End Step
